Version 4
SHEET 1 896 992
WIRE 48 176 -160 176
WIRE -112 224 -128 224
WIRE -32 224 -48 224
WIRE -128 288 -128 224
WIRE -48 288 -128 288
WIRE -48 304 -48 288
WIRE -32 304 -32 224
WIRE -16 304 -16 288
WIRE -160 320 -160 176
WIRE -64 320 -160 320
WIRE 48 336 48 176
WIRE 48 336 0 336
WIRE 320 336 48 336
WIRE -64 352 -144 352
WIRE -32 384 -32 368
WIRE 224 448 -96 448
WIRE -384 464 -384 448
WIRE -256 464 -256 448
WIRE -32 496 -48 496
WIRE 64 496 32 496
WIRE 128 496 64 496
WIRE 224 496 224 448
WIRE 224 496 192 496
WIRE 64 512 64 496
WIRE -384 560 -384 544
WIRE -256 560 -256 544
WIRE 64 608 64 592
WIRE -48 624 -48 496
WIRE -16 624 -16 608
WIRE -96 640 -96 448
WIRE -64 640 -96 640
WIRE 224 656 224 496
WIRE 224 656 0 656
WIRE 320 656 224 656
WIRE -144 672 -144 352
WIRE -64 672 -144 672
WIRE -32 704 -32 688
WIRE -144 720 -144 672
WIRE -144 816 -144 800
FLAG -256 560 0
FLAG -16 288 +V
FLAG -256 448 +V
FLAG -32 384 -V
FLAG -384 560 0
FLAG -384 448 -V
FLAG -144 816 0
FLAG -16 608 +V
FLAG -32 704 -V
FLAG 64 608 0
FLAG 320 336 OUT1
FLAG 320 656 OUT2
SYMBOL voltage -256 448 R0
SYMATTR InstName V1
SYMATTR Value 15
SYMBOL voltage -384 448 R0
SYMATTR InstName V2
SYMATTR Value -15
SYMBOL voltage -144 704 R0
WINDOW 123 24 124 Left 2
WINDOW 39 0 0 Left 2
SYMATTR InstName V3
SYMATTR Value PULSE(5 -5 10u .5u .5u 53u 200u)
SYMBOL cap -48 208 R90
WINDOW 0 0 32 VBottom 2
WINDOW 3 32 32 VTop 2
SYMATTR InstName C1
SYMATTR Value 30p
SYMBOL RH101A -32 272 R0
SYMATTR InstName U1
SYMBOL cap 32 480 R90
WINDOW 0 0 32 VBottom 2
WINDOW 3 32 32 VTop 2
WINDOW 123 60 32 VTop 2
SYMATTR InstName C2
SYMATTR Value 30p
SYMBOL RH101A -32 592 R0
SYMATTR InstName U2
SYMBOL cap 192 480 R90
WINDOW 0 0 32 VBottom 2
WINDOW 3 32 32 VTop 2
WINDOW 123 60 32 VTop 2
SYMATTR InstName C3
SYMATTR Value 300p
SYMBOL res 48 496 R0
SYMATTR InstName R1
SYMATTR Value 10K
TEXT 384 816 Left 2 !.tran 100u
TEXT 192 256 Left 2 ;Single Pole Compensation
TEXT 248 584 Left 2 ;Two Pole Compensation
