Version 4
SHEET 1 3548 1764
WIRE 3008 1440 2976 1440
WIRE 3488 1440 3264 1440
WIRE 3488 1456 3488 1440
WIRE 3008 1504 2912 1504
WIRE 3312 1504 3264 1504
WIRE 3392 1504 3376 1504
WIRE 2912 1536 2912 1504
WIRE 3488 1552 3488 1536
WIRE 3008 1568 2976 1568
WIRE 3296 1568 3264 1568
WIRE 2912 1632 2912 1600
WIRE 3008 1632 2912 1632
WIRE 3328 1632 3264 1632
WIRE 3440 1632 3328 1632
WIRE 3328 1648 3328 1632
WIRE 3440 1648 3440 1632
WIRE 3328 1744 3328 1712
WIRE 3440 1744 3440 1728
FLAG 3488 1552 0
FLAG 2976 1568 0
FLAG 3328 1744 0
FLAG 3392 1504 0
FLAG 3440 1744 0
FLAG 3440 1632 OUT
FLAG 3488 1440 IN
SYMBOL VOLTAGE 3488 1440 R0
SYMATTR InstName V1
SYMATTR Value 5
SYMBOL cap 3312 1648 R0
SYMATTR InstName C5
SYMATTR Value 10µ
SYMBOL cap 2896 1536 R0
SYMATTR InstName C6
SYMATTR Value 10µ
SYMBOL cap 3376 1488 R90
WINDOW 0 0 32 VBottom 0
WINDOW 3 32 32 VTop 0
SYMATTR InstName C1
SYMATTR Value 100p
SYMBOL res 3424 1632 R0
SYMATTR InstName Rload
SYMATTR Value 1K
SYMBOL PowerProducts\\LTC1044A 3136 1536 R0
SYMATTR InstName U1
TEXT 3056 1736 Left 0 !.tran 100m startup
