Version 4
SHEET 1 3548 1768
WIRE 3008 1440 2976 1440
WIRE 3376 1440 3264 1440
WIRE 3376 1456 3376 1440
WIRE 3008 1504 2912 1504
WIRE 3296 1504 3264 1504
WIRE 2912 1536 2912 1504
WIRE 3008 1568 2976 1568
WIRE 3296 1568 3264 1568
WIRE 3376 1568 3376 1536
WIRE 2912 1632 2912 1600
WIRE 3008 1632 2912 1632
WIRE 3328 1632 3264 1632
WIRE 3456 1632 3328 1632
WIRE 3328 1648 3328 1632
WIRE 3456 1648 3456 1632
WIRE 3328 1744 3328 1712
WIRE 3456 1744 3456 1728
FLAG 3376 1568 0
FLAG 2976 1568 0
FLAG 3328 1744 0
FLAG 3456 1744 0
FLAG 3456 1632 OUT
FLAG 3376 1440 IN
SYMBOL VOLTAGE 3376 1440 R0
SYMATTR InstName V1
SYMATTR Value 10
SYMBOL cap 3312 1648 R0
SYMATTR InstName C5
SYMATTR Value 100µ
SYMBOL cap 2896 1536 R0
SYMATTR InstName C6
SYMATTR Value 100µ
SYMBOL POWERPRODUCTS\\LT1054L 3136 1536 R0
SYMATTR InstName U1
SYMBOL RES 3440 1632 R0
SYMATTR InstName Rload
SYMATTR Value 50
TEXT 3032 1752 Left 0 !.tran 10m startup
