Version 4
SHEET 1 2124 2048
WIRE 480 -496 80 -496
WIRE 624 -496 560 -496
WIRE -192 -416 -272 -416
WIRE -96 -416 -112 -416
WIRE 96 -416 -96 -416
WIRE 624 -416 624 -496
WIRE 624 -416 448 -416
WIRE -272 -400 -272 -416
WIRE -96 -352 -96 -416
WIRE -16 -352 -96 -352
WIRE 96 -352 64 -352
WIRE 464 -352 448 -352
WIRE 624 -352 624 -416
WIRE 624 -352 544 -352
WIRE -272 -304 -272 -320
WIRE -96 -288 -96 -352
WIRE -80 -288 -96 -288
WIRE 96 -288 0 -288
WIRE 528 -288 448 -288
WIRE 624 -288 624 -352
WIRE 624 -288 608 -288
WIRE 80 -224 80 -496
WIRE 96 -224 80 -224
WIRE 464 -224 448 -224
WIRE 656 -224 464 -224
WIRE 80 -160 80 -224
WIRE 96 -160 80 -160
WIRE 464 -160 464 -224
WIRE 464 -160 448 -160
WIRE 464 -96 448 -96
WIRE 560 -96 544 -96
WIRE 96 -32 80 -32
WIRE 0 32 -16 32
WIRE 96 32 80 32
WIRE 96 160 80 160
WIRE 464 160 448 160
WIRE 80 224 80 160
WIRE 96 224 80 224
WIRE 464 224 464 160
WIRE 464 224 448 224
WIRE 656 224 464 224
WIRE -80 288 -96 288
WIRE 96 288 0 288
WIRE 528 288 448 288
WIRE 624 288 608 288
WIRE -96 352 -96 288
WIRE -16 352 -96 352
WIRE 96 352 64 352
WIRE 464 352 448 352
WIRE 624 352 624 288
WIRE 624 352 544 352
WIRE -192 416 -272 416
WIRE -96 416 -96 352
WIRE -96 416 -112 416
WIRE 96 416 -96 416
WIRE 624 416 624 352
WIRE 624 416 448 416
WIRE -272 432 -272 416
WIRE 80 496 80 224
WIRE 480 496 80 496
WIRE 624 496 624 416
WIRE 624 496 560 496
WIRE -272 528 -272 512
FLAG -16 32 0
FLAG 560 -96 0
FLAG -272 528 0
FLAG -272 416 IN2
FLAG 80 -32 0
FLAG 656 224 OUT2
FLAG -272 -304 0
FLAG -272 -416 IN1
FLAG 656 -224 OUT1
SYMBOL voltage 96 32 R90
WINDOW 0 -32 56 VBottom 2
WINDOW 3 32 56 VTop 2
WINDOW 123 0 0 Left 2
WINDOW 39 0 0 Left 2
SYMATTR InstName V1
SYMATTR Value 5
SYMBOL voltage 560 -96 R90
WINDOW 0 -32 56 VBottom 2
WINDOW 3 32 56 VTop 2
WINDOW 123 0 0 Left 2
WINDOW 39 0 0 Left 2
SYMATTR InstName V2
SYMATTR Value 5
SYMBOL res -96 400 R90
WINDOW 0 0 56 VBottom 2
WINDOW 3 32 56 VTop 2
SYMATTR InstName R1
SYMATTR Value 20K
SYMBOL res 80 336 R90
WINDOW 0 0 56 VBottom 2
WINDOW 3 32 56 VTop 2
SYMATTR InstName R2
SYMATTR Value 14K
SYMBOL res 16 272 R90
WINDOW 0 0 56 VBottom 2
WINDOW 3 32 56 VTop 2
SYMATTR InstName R3
SYMATTR Value 20K
SYMBOL res 448 336 M90
WINDOW 0 0 56 VBottom 2
WINDOW 3 32 56 VTop 2
SYMATTR InstName R4
SYMATTR Value 20K
SYMBOL res 512 272 M90
WINDOW 0 0 56 VBottom 2
WINDOW 3 32 56 VTop 2
SYMATTR InstName R5
SYMATTR Value 10K
SYMBOL res 464 480 M90
WINDOW 0 0 56 VBottom 2
WINDOW 3 32 56 VTop 2
SYMATTR InstName R6
SYMATTR Value 14K
SYMBOL res -96 -400 M270
WINDOW 0 32 56 VTop 2
WINDOW 3 0 56 VBottom 2
SYMATTR InstName R7
SYMATTR Value 20K
SYMBOL res 80 -336 M270
WINDOW 0 32 56 VTop 2
WINDOW 3 0 56 VBottom 2
SYMATTR InstName R8
SYMATTR Value 14K
SYMBOL res 16 -272 M270
WINDOW 0 32 56 VTop 2
WINDOW 3 0 56 VBottom 2
SYMATTR InstName R9
SYMATTR Value 20K
SYMBOL res 448 -336 R270
WINDOW 0 32 56 VTop 2
WINDOW 3 0 56 VBottom 2
SYMATTR InstName R10
SYMATTR Value 20K
SYMBOL res 512 -272 R270
WINDOW 0 32 56 VTop 2
WINDOW 3 0 56 VBottom 2
SYMATTR InstName R11
SYMATTR Value 10K
SYMBOL res 576 -480 M270
WINDOW 0 32 56 VTop 2
WINDOW 3 0 56 VBottom 2
SYMATTR InstName R12
SYMATTR Value 14K
SYMBOL FilterProducts\\LTC1068-200 272 -160 R0
SYMATTR InstName U1
SYMATTR Value Fclk=2Meg
SYMBOL voltage -272 -416 R0
SYMATTR InstName V3
SYMATTR Value AC 1
SYMBOL voltage -272 416 R0
SYMATTR InstName V4
SYMATTR Value AC 1
TEXT 592 616 Left 2 !.ac oct 200 1k 100k
