Version 4
SHEET 1 2800 1520
WIRE 1552 896 1472 896
WIRE 1856 896 1808 896
WIRE 1952 896 1856 896
WIRE 2080 896 1952 896
WIRE 1856 912 1856 896
WIRE 2080 912 2080 896
WIRE 1472 928 1472 896
WIRE 1952 928 1952 896
WIRE 1952 1008 1952 992
WIRE 2080 1008 2080 992
WIRE 1680 1024 1680 992
WIRE 1856 1024 1856 992
WIRE 1856 1024 1680 1024
WIRE 1472 1040 1472 1008
WIRE 1856 1040 1856 1024
WIRE 1856 1136 1856 1120
FLAG 2080 896 OUT
FLAG 1856 1136 0
FLAG 2080 1008 0
FLAG 1472 1040 0
FLAG 1952 1008 0
FLAG 1472 896 IN
SYMBOL RES 1840 896 R0
SYMATTR InstName R1
SYMATTR Value 121
SYMBOL RES 1840 1024 R0
SYMATTR InstName R2
SYMATTR Value 365
SYMBOL VOLTAGE 1472 912 R0
WINDOW 123 0 0 Left 0
SYMATTR InstName V1
SYMATTR Value PWL(0 0 1 10)
SYMATTR SpiceLine Rser=0.1
SYMBOL RES 2064 896 R0
SYMATTR InstName Rload
SYMATTR Value 10
SYMBOL cap 1936 928 R0
SYMATTR InstName C1
SYMATTR Value 10µ
SYMBOL PowerProducts\\LT1084 1680 896 R0
SYMATTR InstName U1
TEXT 1976 1096 Left 0 !.tran 1
