Version 4
SHEET 1 2800 1520
WIRE 1552 896 1472 896
WIRE 1888 896 1808 896
WIRE 1984 896 1888 896
WIRE 1984 912 1984 896
WIRE 1472 928 1472 896
WIRE 1888 928 1888 896
WIRE 1888 1008 1888 992
WIRE 1984 1008 1984 992
WIRE 1472 1040 1472 1008
WIRE 1680 1040 1680 992
FLAG 1984 896 OUT
FLAG 1984 1008 0
FLAG 1472 1040 0
FLAG 1888 1008 0
FLAG 1680 1040 0
FLAG 1472 896 IN
SYMBOL VOLTAGE 1472 912 R0
WINDOW 123 0 0 Left 0
SYMATTR InstName V1
SYMATTR Value PWL(0 0 1 10)
SYMATTR SpiceLine Rser=0.1
SYMBOL RES 1968 896 R0
SYMATTR InstName Rload
SYMATTR Value 10
SYMBOL cap 1872 928 R0
SYMATTR InstName C1
SYMATTR Value 10µ
SYMBOL PowerProducts\\LT1086-3.6 1680 896 R0
SYMATTR InstName U1
TEXT 1856 1096 Left 0 !.tran 1
