Version 4
SHEET 1 896 680
WIRE -192 32 -208 32
WIRE 96 32 64 32
WIRE 192 32 96 32
WIRE -432 80 -432 64
WIRE -320 80 -320 64
WIRE -192 96 -208 96
WIRE 96 96 64 96
WIRE -192 160 -208 160
WIRE 192 160 64 160
WIRE 192 176 192 160
WIRE -432 192 -432 160
WIRE -320 192 -320 160
WIRE -192 224 -208 224
WIRE 80 224 64 224
WIRE 192 272 192 256
FLAG -320 192 0
FLAG -320 64 +V
FLAG 192 272 0
FLAG -208 32 0
FLAG 80 224 +V
FLAG -432 192 0
FLAG -208 224 -V
FLAG -432 64 -V
FLAG -208 160 0
FLAG 192 32 OUT
FLAG 192 160 IN
SYMBOL voltage -320 64 R0
SYMATTR InstName V1
SYMATTR Value 5
SYMBOL voltage 192 160 R0
SYMATTR InstName V3
SYMATTR Value SINE(0 10m 10)
SYMBOL cap 80 32 R0
WINDOW 0 30 16 Left 0
WINDOW 3 28 55 Left 0
SYMATTR InstName C1
SYMATTR Value .01µ
SYMBOL voltage -432 64 R0
SYMATTR InstName V2
SYMATTR Value -5
SYMBOL opamps\\LTC1100A -64 128 R0
SYMATTR InstName U1
TEXT 78 322 Left 0 !.tran .3
