Version 4
SHEET 1 1108 680
WIRE 96 176 -16 176
WIRE 512 176 352 176
WIRE 624 176 512 176
WIRE -16 192 -16 176
WIRE 624 192 624 176
WIRE 512 208 512 176
WIRE -16 288 -16 272
WIRE 512 288 512 272
WIRE 624 288 624 272
WIRE 224 304 224 272
FLAG -16 288 0
FLAG 512 288 0
FLAG 624 288 0
FLAG 224 304 0
SYMBOL polcap 496 208 R0
WINDOW 3 24 56 Left 2
SYMATTR Value 10µ
SYMATTR InstName C1
SYMATTR Description Capacitor
SYMATTR Type cap
SYMATTR SpiceLine V=33 Irms=0 Rser=0.3 Lser=0 mfg="KEMET" pn="T495D106M035AS" type="Tantalum"
SYMBOL voltage -16 176 R0
SYMATTR InstName V1
SYMATTR Value 5
SYMBOL current 624 192 R0
SYMATTR InstName I1
SYMATTR Value pulse(.1 .6 10u 1u 1u 50u 100u)
SYMBOL PowerProducts\\LT1117-3.3 224 176 R0
SYMATTR InstName U1
TEXT 520 376 Left 2 !.tran 300u
