Version 4
SHEET 1 2808 1464
WIRE 1600 896 1488 896
WIRE 1824 896 1600 896
WIRE 1888 896 1824 896
WIRE 2048 896 1968 896
WIRE 2096 896 2048 896
WIRE 2224 896 2160 896
WIRE 2352 896 2224 896
WIRE 2464 896 2352 896
WIRE 2352 912 2352 896
WIRE 2464 912 2464 896
WIRE 1488 928 1488 896
WIRE 1600 944 1600 896
WIRE 1824 944 1824 896
WIRE 2224 960 2224 896
WIRE 2352 1008 2352 976
WIRE 2464 1008 2464 992
WIRE 2048 1024 2048 896
WIRE 2048 1024 1952 1024
WIRE 1488 1040 1488 1008
WIRE 1600 1040 1600 1008
WIRE 2224 1088 2224 1040
WIRE 2224 1088 1952 1088
WIRE 2224 1104 2224 1088
WIRE 1968 1152 1952 1152
WIRE 2064 1152 2048 1152
WIRE 2064 1168 2064 1152
WIRE 2224 1200 2224 1184
WIRE 1824 1248 1824 1232
WIRE 2064 1248 2064 1232
FLAG 1488 1040 0
FLAG 1600 1040 0
FLAG 1824 1248 0
FLAG 2064 1248 0
FLAG 2464 1008 0
FLAG 2352 1008 0
FLAG 2224 1200 0
FLAG 2464 896 OUT
FLAG 1488 896 IN
SYMBOL VOLTAGE 1488 912 R0
SYMATTR InstName V1
SYMATTR Value 5
SYMATTR SpiceLine Rser=0.1
SYMBOL CAP 2048 1168 R0
SYMATTR InstName C1
SYMATTR Value 1
SYMBOL RES 1952 1168 R270
WINDOW 0 32 56 VTop 0
WINDOW 3 0 56 VBottom 0
SYMATTR InstName R1
SYMATTR Value 1K
SYMBOL RES 2208 1088 R0
SYMATTR InstName R2
SYMATTR Value 1.24K
SYMBOL RES 2208 944 R0
SYMATTR InstName R3
SYMATTR Value 10.7K
SYMBOL schottky 2096 912 R270
WINDOW 0 32 32 VTop 0
WINDOW 3 0 32 VBottom 0
SYMATTR InstName D1
SYMATTR Value MBRS360
SYMBOL IND 1872 912 R270
WINDOW 0 32 56 VTop 0
WINDOW 3 5 56 VBottom 0
SYMATTR InstName L1
SYMATTR Value 150
SYMATTR SpiceLine Rser=0.02 Rpar=5000
SYMBOL polcap 2336 912 R0
SYMATTR InstName C2
SYMATTR Value 500
SYMATTR SpiceLine Rser=0.05
SYMBOL polcap 1584 944 R0
SYMATTR InstName C3
SYMATTR Value 100
SYMATTR SpiceLine Rser=0.05
SYMBOL PowerProducts\\LT1170HV 1824 1088 R0
SYMATTR InstName U1
SYMBOL RES 2448 896 R0
SYMATTR InstName Rload
SYMATTR Value 12
TEXT 2152 1248 Left 0 !.tran 15m startup
