Version 4
SHEET 1 2808 1464
WIRE 1616 896 1520 896
WIRE 1824 896 1616 896
WIRE 1888 896 1824 896
WIRE 2016 896 1968 896
WIRE 2064 896 2016 896
WIRE 2176 896 2128 896
WIRE 2304 896 2176 896
WIRE 2416 896 2304 896
WIRE 2304 912 2304 896
WIRE 2416 912 2416 896
WIRE 1520 928 1520 896
WIRE 1616 944 1616 896
WIRE 1824 944 1824 896
WIRE 2176 944 2176 896
WIRE 2304 1008 2304 976
WIRE 2416 1008 2416 992
WIRE 2016 1024 2016 896
WIRE 2016 1024 1952 1024
WIRE 1520 1056 1520 1008
WIRE 1616 1056 1616 1008
WIRE 2176 1088 2176 1024
WIRE 2176 1088 1952 1088
WIRE 2176 1104 2176 1088
WIRE 1968 1152 1952 1152
WIRE 2064 1152 2048 1152
WIRE 2064 1168 2064 1152
WIRE 2176 1200 2176 1184
WIRE 1824 1248 1824 1232
WIRE 2064 1248 2064 1232
FLAG 2416 896 OUT
FLAG 2176 1200 0
FLAG 2304 1008 0
FLAG 2416 1008 0
FLAG 2064 1248 0
FLAG 1824 1248 0
FLAG 1616 1056 0
FLAG 1520 1056 0
FLAG 1520 896 IN
SYMBOL IND 1872 912 R270
WINDOW 0 32 56 VTop 0
WINDOW 3 5 56 VBottom 0
SYMATTR InstName L1
SYMATTR Value 150
SYMATTR SpiceLine Rser=0.02 Rpar=5000
SYMBOL schottky 2064 912 R270
WINDOW 0 32 32 VTop 0
WINDOW 3 0 32 VBottom 0
SYMATTR InstName D1
SYMATTR Value MBRS360
SYMBOL RES 2160 928 R0
SYMATTR InstName R1
SYMATTR Value 10.7K
SYMBOL RES 2160 1088 R0
SYMATTR InstName R2
SYMATTR Value 1.24K
SYMBOL RES 1952 1168 R270
WINDOW 0 32 56 VTop 0
WINDOW 3 0 56 VBottom 0
SYMATTR InstName R3
SYMATTR Value 1K
SYMBOL polcap 2288 912 R0
SYMATTR InstName C1
SYMATTR Value 500
SYMATTR SpiceLine Rser=0.05
SYMBOL polcap 1600 944 R0
SYMATTR InstName C2
SYMATTR Value 100
SYMATTR SpiceLine Rser=0.05
SYMBOL CAP 2048 1168 R0
SYMATTR InstName C3
SYMATTR Value 1
SYMBOL VOLTAGE 1520 912 R0
SYMATTR InstName V1
SYMATTR Value 5
SYMATTR SpiceLine Rser=0.1
SYMBOL PowerProducts\\LT1171HV 1824 1088 R0
SYMATTR InstName U1
SYMBOL RES 2400 896 R0
SYMATTR InstName Rload
SYMATTR Value 12
TEXT 2192 1240 Left 0 !.tran 20m startup
