Version 4
SHEET 1 1584 1140
WIRE 384 480 288 480
WIRE 464 480 384 480
WIRE 624 480 464 480
WIRE 288 512 288 480
WIRE 624 512 624 480
WIRE 384 528 384 480
WIRE 464 560 464 480
WIRE 496 560 464 560
WIRE 816 560 752 560
WIRE 880 560 816 560
WIRE 976 560 960 560
WIRE 1088 560 976 560
WIRE 816 576 816 560
WIRE 1088 576 1088 560
WIRE 288 624 288 592
WIRE 384 624 384 592
WIRE 496 624 480 624
WIRE 768 624 752 624
WIRE 816 656 816 640
WIRE 1088 672 1088 656
WIRE 464 688 464 560
WIRE 496 688 464 688
WIRE 976 688 976 560
WIRE 976 688 752 688
WIRE 976 704 976 688
WIRE 624 752 624 736
WIRE 976 784 976 768
FLAG 1088 560 OUT
FLAG 976 784 0
FLAG 1088 672 0
FLAG 816 656 0
FLAG 384 624 0
FLAG 624 752 0
FLAG 288 624 0
FLAG 288 480 IN
SYMBOL VOLTAGE 288 496 R0
SYMATTR InstName V1
SYMATTR Value 9
SYMATTR SpiceLine Rser=0.1
SYMBOL IND 864 576 R270
WINDOW 0 32 56 VTop 0
WINDOW 3 5 56 VBottom 0
SYMATTR InstName L1
SYMATTR Value 100µ
SYMATTR SpiceLine Rser=0.02 Rpar=5000
SYMBOL SCHOTTKY 800 640 M180
WINDOW 0 36 62 Left 0
WINDOW 3 24 0 Left 0
SYMATTR InstName D1
SYMATTR Value MBRS140
SYMBOL POLCAP 960 704 R0
SYMATTR InstName C2
SYMATTR Value 100µ
SYMATTR SpiceLine Rser=0.02
SYMBOL POLCAP 368 528 R0
SYMATTR InstName C1
SYMATTR Value 45µ
SYMATTR SpiceLine Rser=0.02
SYMBOL PowerProducts\\LTC1174HV-5 624 624 R0
SYMATTR InstName U1
SYMBOL res 1072 560 R0
SYMATTR InstName Rload
SYMATTR Value 15
TEXT 752 760 Left 0 !.tran 5m startup
