Version 4
SHEET 1 1716 968
WIRE 432 448 320 448
WIRE 528 448 432 448
WIRE 704 448 528 448
WIRE 752 448 704 448
WIRE 880 448 832 448
WIRE 928 448 880 448
WIRE 1040 448 992 448
WIRE 1152 448 1040 448
WIRE 1248 448 1152 448
WIRE 1152 464 1152 448
WIRE 1248 464 1248 448
WIRE 320 480 320 448
WIRE 432 480 432 448
WIRE 704 512 704 448
WIRE 1040 512 1040 448
WIRE 1152 560 1152 528
WIRE 1248 560 1248 544
WIRE 320 576 320 560
WIRE 432 576 432 544
WIRE 528 576 528 448
WIRE 560 576 528 576
WIRE 880 576 880 448
WIRE 880 576 848 576
WIRE 464 656 432 656
WIRE 560 656 544 656
WIRE 1040 656 1040 592
WIRE 1040 656 848 656
WIRE 432 672 432 656
WIRE 1040 672 1040 656
WIRE 560 736 544 736
WIRE 864 736 848 736
WIRE 432 752 432 736
WIRE 1040 768 1040 752
WIRE 704 816 704 800
FLAG 1248 448 OUT
FLAG 1040 768 0
FLAG 1152 560 0
FLAG 1248 560 0
FLAG 432 752 0
FLAG 320 576 0
FLAG 432 576 0
FLAG 704 816 0
FLAG 320 448 IN
SYMBOL CAP 416 672 R0
SYMATTR InstName C1
SYMATTR Value 680p
SYMBOL VOLTAGE 320 464 R0
WINDOW 3 26 94 Left 0
SYMATTR Value 1.8
SYMATTR InstName V1
SYMATTR SpiceLine Rser=0.1
SYMBOL RES 1024 496 R0
SYMATTR InstName R1
SYMATTR Value 1Meg
SYMBOL RES 1024 656 R0
SYMATTR InstName R2
SYMATTR Value 324K
SYMBOL RES 560 640 R90
WINDOW 0 0 56 VBottom 0
WINDOW 3 32 56 VTop 0
SYMATTR InstName R3
SYMATTR Value 100K
SYMBOL IND 736 464 R270
WINDOW 0 32 56 VTop 0
WINDOW 3 5 56 VBottom 0
SYMATTR InstName L1
SYMATTR Value 10µ
SYMATTR SpiceLine Rser=0.02 Rpar=5000
SYMBOL SCHOTTKY 928 464 R270
WINDOW 0 32 32 VTop 0
WINDOW 3 0 32 VBottom 0
SYMATTR InstName D1
SYMATTR Value MBRS140
SYMBOL POLCAP 1136 464 R0
SYMATTR InstName C2
SYMATTR Value 33µ
SYMATTR SpiceLine Rser=0.02
SYMBOL POLCAP 416 480 R0
SYMATTR InstName C3
SYMATTR Value 22µ
SYMATTR SpiceLine Rser=0.02
SYMBOL PowerProducts\\LT1307B 704 656 R0
SYMATTR InstName U1
SYMBOL RES 1232 448 R0
SYMATTR InstName Rload
SYMATTR Value 100
TEXT 1128 664 Left 0 !.tran 1.5m startup
