Version 4
SHEET 1 1652 976
WIRE 432 448 320 448
WIRE 528 448 432 448
WIRE 704 448 528 448
WIRE 752 448 704 448
WIRE 880 448 832 448
WIRE 912 448 880 448
WIRE 1008 448 976 448
WIRE 1120 448 1008 448
WIRE 1216 448 1120 448
WIRE 1216 464 1216 448
WIRE 320 480 320 448
WIRE 432 480 432 448
WIRE 1120 480 1120 448
WIRE 704 512 704 448
WIRE 1008 512 1008 448
WIRE 1120 560 1120 544
WIRE 1216 560 1216 544
WIRE 528 576 528 448
WIRE 560 576 528 576
WIRE 880 576 880 448
WIRE 880 576 848 576
WIRE 320 592 320 560
WIRE 432 592 432 544
WIRE 464 656 432 656
WIRE 560 656 544 656
WIRE 1008 656 1008 592
WIRE 1008 656 848 656
WIRE 432 672 432 656
WIRE 1008 672 1008 656
WIRE 560 736 544 736
WIRE 880 736 848 736
WIRE 432 752 432 736
WIRE 704 816 704 800
FLAG 1216 448 OUT
FLAG 1008 752 0
FLAG 1120 560 0
FLAG 1216 560 0
FLAG 432 752 0
FLAG 320 592 0
FLAG 432 592 0
FLAG 704 816 0
FLAG 320 448 IN
SYMBOL CAP 416 672 R0
SYMATTR InstName C3
SYMATTR Value 680p
SYMBOL VOLTAGE 320 464 R0
SYMATTR InstName V1
SYMATTR Value 1.5
SYMBOL RES 992 496 R0
SYMATTR InstName R1
SYMATTR Value 1Meg
SYMBOL RES 992 656 R0
SYMATTR InstName R2
SYMATTR Value 324K
SYMBOL RES 560 640 R90
WINDOW 0 0 56 VBottom 0
WINDOW 3 32 56 VTop 0
SYMATTR InstName R3
SYMATTR Value 100K
SYMBOL IND 736 464 R270
WINDOW 0 32 56 VTop 0
WINDOW 3 5 56 VBottom 0
SYMATTR InstName L1
SYMATTR Value 10µ
SYMBOL SCHOTTKY 912 464 R270
WINDOW 0 32 32 VTop 0
WINDOW 3 0 32 VBottom 0
SYMATTR InstName D1
SYMATTR Value MBRS140
SYMBOL POLCAP 1104 480 R0
SYMATTR InstName C2
SYMATTR Value 33µ
SYMBOL POLCAP 416 480 R0
SYMATTR InstName C1
SYMATTR Value 22µ
SYMBOL POWERPRODUCTS\\LT1308A 704 656 R0
WINDOW 0 -108 -164 Left 0
SYMATTR InstName U1
SYMBOL RES 1200 448 R0
SYMATTR InstName Rload
SYMATTR Value 50
TEXT 1080 664 Left 0 !.tran 1m startup
