Version 4
SHEET 1 1652 960
WIRE 448 432 336 432
WIRE 704 432 448 432
WIRE 768 432 704 432
WIRE 896 432 848 432
WIRE 944 432 896 432
WIRE 1056 432 1008 432
WIRE 1168 432 1056 432
WIRE 1264 432 1168 432
WIRE 1168 448 1168 432
WIRE 1264 448 1264 432
WIRE 336 464 336 432
WIRE 448 480 448 432
WIRE 704 512 704 432
WIRE 1056 512 1056 432
WIRE 1168 544 1168 512
WIRE 1264 544 1264 528
WIRE 336 576 336 544
WIRE 448 576 448 544
WIRE 560 576 544 576
WIRE 896 576 896 432
WIRE 896 576 848 576
WIRE 464 656 416 656
WIRE 560 656 544 656
WIRE 1056 656 1056 592
WIRE 1056 656 848 656
WIRE 416 672 416 656
WIRE 1056 672 1056 656
WIRE 560 736 544 736
WIRE 864 736 848 736
WIRE 416 752 416 736
WIRE 1056 768 1056 752
WIRE 704 816 704 800
FLAG 1168 544 0
FLAG 1056 768 0
FLAG 704 816 0
FLAG 448 576 0
FLAG 336 576 0
FLAG 416 752 0
FLAG 1264 544 0
FLAG 1264 432 OUT
FLAG 336 432 IN
SYMBOL POLCAP 1152 448 R0
SYMATTR InstName C1
SYMATTR Value 33µ
SYMATTR SpiceLine Rser=0.02
SYMBOL POLCAP 432 480 R0
SYMATTR InstName C2
SYMATTR Value 22µ
SYMATTR SpiceLine Rser=0.02
SYMBOL SCHOTTKY 944 448 R270
WINDOW 0 32 32 VTop 0
WINDOW 3 0 32 VBottom 0
SYMATTR InstName D1
SYMATTR Value MBRS140
SYMBOL IND 752 448 R270
WINDOW 0 32 56 VTop 0
WINDOW 3 5 56 VBottom 0
SYMATTR InstName L1
SYMATTR Value 10µ
SYMATTR SpiceLine Rser=0.02 Rpar=5000
SYMBOL RES 1040 656 R0
SYMATTR InstName R1
SYMATTR Value 324K
SYMBOL RES 1040 496 R0
SYMATTR InstName R2
SYMATTR Value 1Meg
SYMBOL RES 560 640 R90
WINDOW 0 0 56 VBottom 0
WINDOW 3 32 56 VTop 0
SYMATTR InstName R3
SYMATTR Value 33K
SYMBOL VOLTAGE 336 448 R0
SYMATTR InstName V1
SYMATTR Value 1.5
SYMATTR SpiceLine Rser=0.1
SYMBOL CAP 400 672 R0
SYMATTR InstName C3
SYMATTR Value 3300p
SYMBOL PowerProducts\\LT1317B 704 656 R0
SYMATTR InstName U1
SYMBOL RES 1248 432 R0
SYMATTR InstName Rload
SYMATTR Value 100
TEXT 1128 656 Left 0 !.tran 2.5m startup
