Version 4
SHEET 1 2768 1444
WIRE 2032 752 2016 752
WIRE 2144 752 2112 752
WIRE 2224 752 2208 752
WIRE 1616 848 1520 848
WIRE 1824 848 1616 848
WIRE 1872 848 1824 848
WIRE 2016 848 2016 752
WIRE 2016 848 1952 848
WIRE 2096 848 2016 848
WIRE 2224 848 2224 752
WIRE 2224 848 2160 848
WIRE 2352 848 2224 848
WIRE 2464 848 2352 848
WIRE 2464 864 2464 848
WIRE 1520 880 1520 848
WIRE 2352 880 2352 848
WIRE 1616 896 1616 848
WIRE 2224 912 2224 848
WIRE 1824 928 1824 848
WIRE 2352 960 2352 944
WIRE 2464 960 2464 944
WIRE 1520 992 1520 960
WIRE 1616 992 1616 960
WIRE 2016 992 2016 848
WIRE 2016 992 1968 992
WIRE 1680 1072 1648 1072
WIRE 2224 1072 2224 992
WIRE 2224 1072 1968 1072
WIRE 2224 1088 2224 1072
WIRE 2000 1152 1968 1152
WIRE 2224 1184 2224 1168
WIRE 1744 1232 1744 1216
WIRE 1904 1232 1904 1216
WIRE 1904 1328 1904 1312
WIRE 1904 1408 1904 1392
FLAG 2464 848 OUT
FLAG 2224 1184 0
FLAG 2352 960 0
FLAG 2464 960 0
FLAG 1904 1408 0
FLAG 1744 1232 0
FLAG 1616 992 0
FLAG 1520 992 0
FLAG 1520 848 IN
SYMBOL IND 1856 864 R270
WINDOW 0 32 56 VTop 0
WINDOW 3 5 56 VBottom 0
SYMATTR InstName L1
SYMATTR Value 6.8
SYMATTR SpiceLine Rser=0.072
SYMBOL schottky 2096 864 R270
WINDOW 0 32 32 VTop 0
WINDOW 3 0 32 VBottom 0
SYMATTR InstName D1
SYMATTR Value MBR745
SYMBOL RES 2016 768 R270
WINDOW 0 32 56 VTop 0
WINDOW 3 0 56 VBottom 0
SYMATTR InstName R1
SYMATTR Value 10
SYMBOL RES 2208 896 R0
SYMATTR InstName R2
SYMATTR Value 53.6K
SYMBOL RES 2208 1072 R0
SYMATTR InstName R3
SYMATTR Value 6.19K
SYMBOL RES 1888 1216 R0
SYMATTR InstName R4
SYMATTR Value 470
SYMBOL CAP 2144 768 R270
WINDOW 0 32 32 VTop 0
WINDOW 3 0 32 VBottom 0
SYMATTR InstName C1
SYMATTR Value 1000p
SYMATTR SpiceLine Rser=0.04
SYMBOL polcap 2336 880 R0
SYMATTR InstName C2
SYMATTR Value 180
SYMATTR SpiceLine Rser=0.05
SYMBOL CAP 1888 1392 M180
WINDOW 0 24 64 Left 0
WINDOW 3 24 8 Left 0
SYMATTR InstName C3
SYMATTR Value .1
SYMBOL VOLTAGE 1520 864 R0
SYMATTR InstName V1
SYMATTR Value 5
SYMATTR SpiceLine Rser=.2
SYMBOL polcap 1600 896 R0
SYMATTR InstName C4
SYMATTR Value 33
SYMATTR SpiceLine Rser=0.05
SYMBOL PowerProducts\\LT1370HV 1824 1072 R0
SYMATTR InstName U1
SYMBOL RES 2448 848 R0
SYMATTR InstName Rload
SYMATTR Value 10
TEXT 2056 1328 Left 0 !.tran 5m startup
