Version 4
SHEET 1 2868 1400
WIRE 1600 832 1504 832
WIRE 1824 832 1600 832
WIRE 1888 832 1824 832
WIRE 2032 832 1968 832
WIRE 2080 832 2032 832
WIRE 2192 832 2144 832
WIRE 2304 832 2192 832
WIRE 2416 832 2304 832
WIRE 2528 832 2416 832
WIRE 2304 848 2304 832
WIRE 2416 848 2416 832
WIRE 2528 848 2528 832
WIRE 1504 864 1504 832
WIRE 1600 880 1600 832
WIRE 2192 912 2192 832
WIRE 1824 928 1824 832
WIRE 2304 944 2304 912
WIRE 2416 944 2416 912
WIRE 2528 944 2528 928
WIRE 1504 976 1504 944
WIRE 1600 976 1600 944
WIRE 1680 992 1648 992
WIRE 2032 992 2032 832
WIRE 2032 992 1968 992
WIRE 2192 1072 2192 992
WIRE 2192 1072 1968 1072
WIRE 2192 1088 2192 1072
WIRE 1456 1152 1392 1152
WIRE 1584 1152 1536 1152
WIRE 1680 1152 1584 1152
WIRE 2000 1152 1968 1152
WIRE 1392 1168 1392 1152
WIRE 1584 1168 1584 1152
WIRE 2192 1184 2192 1168
WIRE 1824 1232 1824 1216
WIRE 1392 1248 1392 1232
WIRE 1584 1248 1584 1232
FLAG 2416 944 0
FLAG 1584 1248 0
FLAG 1504 976 0
FLAG 1600 976 0
FLAG 1824 1232 0
FLAG 1392 1248 0
FLAG 2528 944 0
FLAG 2304 944 0
FLAG 2192 1184 0
FLAG 2528 832 OUT
FLAG 1504 832 IN
SYMBOL VOLTAGE 1504 848 R0
SYMATTR InstName V1
SYMATTR Value 5
SYMATTR SpiceLine Rser=0.1
SYMBOL CAP 2400 848 R0
SYMATTR InstName C1
SYMATTR Value .1
SYMBOL CAP 1568 1232 M180
WINDOW 0 24 64 Left 0
WINDOW 3 24 8 Left 0
SYMATTR InstName C2
SYMATTR Value .0047
SYMBOL CAP 1376 1232 M180
WINDOW 0 24 64 Left 0
WINDOW 3 24 8 Left 0
SYMATTR InstName C3
SYMATTR Value .047
SYMBOL polcap 2288 848 R0
SYMATTR InstName C4
SYMATTR Value 22
SYMATTR SpiceLine Rser=.05
SYMBOL RES 1440 1168 R270
WINDOW 0 32 56 VTop 0
WINDOW 3 0 56 VBottom 0
SYMATTR InstName R1
SYMATTR Value 2K
SYMBOL RES 2176 1072 R0
SYMATTR InstName R2
SYMATTR Value 6.19K
SYMBOL RES 2176 896 R0
SYMATTR InstName R3
SYMATTR Value 53.6K
SYMBOL schottky 2080 848 R270
WINDOW 0 32 32 VTop 0
WINDOW 3 0 32 VBottom 0
SYMATTR InstName D1
SYMATTR Value MBRS340
SYMBOL IND 1872 848 R270
WINDOW 0 32 56 VTop 0
WINDOW 3 5 56 VBottom 0
SYMATTR InstName L1
SYMATTR Value 4.7
SYMATTR SpiceLine Rser=0.02 Rpar=5000
SYMBOL polcap 1584 880 R0
SYMATTR InstName C5
SYMATTR Value 22
SYMATTR SpiceLine Rser=.05
SYMBOL PowerProducts\\LT1372HV 1824 1072 R0
SYMATTR InstName U1
SYMBOL RES 2512 832 R0
SYMATTR InstName Rload
SYMATTR Value 50
TEXT 2320 1088 Left 0 !.tran 1.5m startup
