Version 4
SHEET 1 2708 1432
WIRE 1600 864 1504 864
WIRE 1824 864 1600 864
WIRE 1888 864 1824 864
WIRE 2016 864 1968 864
WIRE 2064 864 2016 864
WIRE 2208 864 2128 864
WIRE 2320 864 2208 864
WIRE 2432 864 2320 864
WIRE 2320 880 2320 864
WIRE 2432 880 2432 864
WIRE 1504 896 1504 864
WIRE 1600 912 1600 864
WIRE 2208 912 2208 864
WIRE 1824 928 1824 864
WIRE 2320 976 2320 944
WIRE 2432 976 2432 960
WIRE 2016 992 2016 864
WIRE 2016 992 1968 992
WIRE 1504 1008 1504 976
WIRE 1600 1008 1600 976
WIRE 2208 1056 2208 992
WIRE 2208 1056 1968 1056
WIRE 2208 1072 2208 1056
WIRE 1680 1088 1648 1088
WIRE 2016 1120 1968 1120
WIRE 2208 1168 2208 1152
WIRE 1984 1184 1968 1184
WIRE 2064 1184 2048 1184
WIRE 2160 1184 2144 1184
WIRE 1744 1264 1744 1248
WIRE 1904 1264 1904 1248
FLAG 1904 1264 0
FLAG 1504 1008 0
FLAG 1600 1008 0
FLAG 1744 1264 0
FLAG 2160 1184 0
FLAG 2432 976 0
FLAG 2320 976 0
FLAG 2208 1168 0
FLAG 2432 864 OUT
FLAG 1504 864 IN
SYMBOL VOLTAGE 1504 880 R0
SYMATTR InstName V1
SYMATTR Value 5
SYMATTR SpiceLine Rser=0.1
SYMBOL CAP 1984 1200 R270
WINDOW 0 32 32 VTop 0
WINDOW 3 0 32 VBottom 0
SYMATTR InstName C4
SYMATTR Value .05
SYMBOL polcap 2304 880 R0
SYMATTR InstName C2
SYMATTR Value 22
SYMATTR SpiceLine Rser=.05
SYMBOL RES 2048 1200 R270
WINDOW 0 32 56 VTop 0
WINDOW 3 0 56 VBottom 0
SYMATTR InstName R3
SYMATTR Value 5K
SYMBOL RES 2192 1056 R0
SYMATTR InstName R2
SYMATTR Value 24.9K
SYMBOL RES 2192 896 R0
SYMATTR InstName R1
SYMATTR Value 215K
SYMBOL schottky 2064 880 R270
WINDOW 0 32 32 VTop 0
WINDOW 3 0 32 VBottom 0
SYMATTR InstName D1
SYMATTR Value MBRS360
SYMBOL IND 1872 880 R270
WINDOW 0 32 56 VTop 0
WINDOW 3 5 56 VBottom 0
SYMATTR InstName L1
SYMATTR Value 22
SYMATTR SpiceLine Rser=0.02 Rpar=5000
SYMBOL polcap 1584 912 R0
SYMATTR InstName C1
SYMATTR Value 22
SYMATTR SpiceLine Rser=.05
SYMBOL PowerProducts\\LT1373HV 1824 1088 R0
SYMATTR InstName U1
SYMBOL RES 2416 864 R0
SYMATTR InstName R4
SYMATTR Value 50
TEXT 2272 1048 Left 0 !.tran 5m startup
