Version 4
SHEET 1 2928 1440
WIRE 2064 864 1888 864
WIRE 2144 864 2064 864
WIRE 2272 864 2208 864
WIRE 2064 896 2064 864
WIRE 1584 928 1504 928
WIRE 1760 928 1584 928
WIRE 1504 960 1504 928
WIRE 1584 976 1584 928
WIRE 1760 976 1760 928
WIRE 1888 976 1888 864
WIRE 2064 976 2064 960
WIRE 2064 976 2016 976
WIRE 2160 976 2064 976
WIRE 2272 976 2272 864
WIRE 2272 976 2240 976
WIRE 2336 976 2272 976
WIRE 2448 976 2336 976
WIRE 2544 976 2448 976
WIRE 2064 992 2064 976
WIRE 2544 992 2544 976
WIRE 2448 1008 2448 976
WIRE 2016 1040 2016 976
WIRE 2016 1040 1984 1040
WIRE 2336 1040 2336 976
WIRE 2064 1072 2064 1056
WIRE 1504 1088 1504 1040
WIRE 1584 1088 1584 1040
WIRE 2448 1088 2448 1072
WIRE 2544 1088 2544 1072
WIRE 2272 1104 2272 976
WIRE 2272 1104 1984 1104
WIRE 1664 1168 1632 1168
WIRE 2336 1168 2336 1120
WIRE 2336 1168 1984 1168
WIRE 2336 1184 2336 1168
WIRE 2000 1232 1984 1232
WIRE 2080 1232 2064 1232
WIRE 2176 1232 2160 1232
WIRE 2336 1280 2336 1264
WIRE 1824 1312 1824 1296
FLAG 2176 1232 0
FLAG 1824 1312 0
FLAG 2336 1280 0
FLAG 2064 1072 0
FLAG 2448 1088 0
FLAG 1504 1088 0
FLAG 1584 1088 0
FLAG 2544 1088 0
FLAG 2544 976 OUT
FLAG 1504 928 IN
SYMBOL cap 2048 896 R0
SYMATTR InstName C1
SYMATTR Value .27
SYMBOL ind 2144 992 R270
WINDOW 0 32 56 VTop 0
WINDOW 3 5 56 VBottom 0
SYMATTR InstName L1
SYMATTR Value 5
SYMBOL RES 2320 1024 R0
SYMATTR InstName R1
SYMATTR Value 5.36K
SYMBOL res 2320 1280 M180
WINDOW 0 36 76 Left 0
WINDOW 3 36 40 Left 0
SYMATTR InstName R2
SYMATTR Value 4.99K
SYMBOL schottky 2048 1056 M180
WINDOW 0 37 52 Left 0
WINDOW 3 24 0 Left 0
SYMATTR InstName D1
SYMATTR Value MBRS340
SYMBOL diode 2208 848 R90
WINDOW 0 0 32 VBottom 0
WINDOW 3 32 32 VTop 0
SYMATTR InstName D2
SYMATTR Value 1N914
SYMBOL VOLTAGE 1504 944 R0
SYMATTR InstName V1
SYMATTR Value 12
SYMBOL cap 2064 1216 R90
WINDOW 0 0 32 VBottom 0
WINDOW 3 32 32 VTop 0
SYMATTR InstName C2
SYMATTR Value .005
SYMBOL polcap 2432 1008 R0
SYMATTR InstName C3
SYMATTR Value 100
SYMBOL cap 1568 976 R0
SYMATTR InstName C4
SYMATTR Value 2.2
SYMBOL res 2064 1248 R270
WINDOW 0 32 56 VTop 0
WINDOW 3 0 56 VBottom 0
SYMATTR InstName R3
SYMATTR Value 10K
SYMBOL PowerProducts\\LT1374HV 1824 1136 R0
SYMATTR InstName U1
SYMBOL RES 2528 976 R0
SYMATTR InstName Rload
SYMATTR Value 2
TEXT 2400 1176 Left 0 !.tran 500u startup
