Version 4
SHEET 1 2372 1144
WIRE 1152 672 1056 672
WIRE 1328 672 1152 672
WIRE 1584 672 1456 672
WIRE 1664 672 1584 672
WIRE 1808 672 1728 672
WIRE 1056 704 1056 672
WIRE 1328 704 1328 672
WIRE 1456 704 1456 672
WIRE 1584 704 1584 672
WIRE 1152 720 1152 672
WIRE 1248 784 1232 784
WIRE 1584 784 1584 768
WIRE 1584 784 1536 784
WIRE 1664 784 1584 784
WIRE 1808 784 1808 672
WIRE 1808 784 1744 784
WIRE 1936 784 1808 784
WIRE 2032 784 1936 784
WIRE 1584 800 1584 784
WIRE 1808 800 1808 784
WIRE 2032 800 2032 784
WIRE 1056 816 1056 784
WIRE 1152 816 1152 784
WIRE 1936 816 1936 784
WIRE 1584 880 1584 864
WIRE 1936 896 1936 880
WIRE 2032 896 2032 880
WIRE 1072 912 1056 912
WIRE 1152 912 1136 912
WIRE 1248 912 1232 912
WIRE 1808 912 1808 880
WIRE 1808 912 1536 912
WIRE 1808 928 1808 912
WIRE 1392 1024 1392 992
WIRE 1808 1024 1808 1008
FLAG 1808 1024 0
FLAG 1584 880 0
FLAG 2032 896 0
FLAG 1936 896 0
FLAG 1392 1024 0
FLAG 1152 816 0
FLAG 1056 816 0
FLAG 1056 912 0
FLAG 2032 784 OUT
FLAG 1056 672 IN
SYMBOL RES 1792 912 R0
SYMATTR InstName R1
SYMATTR Value 4.99K
SYMBOL res 1792 784 R0
SYMATTR InstName R2
SYMATTR Value 5.36K
SYMBOL res 1248 896 R90
WINDOW 0 0 56 VBottom 0
WINDOW 3 32 56 VTop 0
SYMATTR InstName R3
SYMATTR Value 1K
SYMBOL schottky 1568 864 M180
WINDOW 0 36 54 Left 0
WINDOW 3 24 0 Left 0
SYMATTR InstName D1
SYMATTR Value MBRS340
SYMBOL DIODE 1728 656 R90
WINDOW 0 0 32 VBottom 0
WINDOW 3 32 32 VTop 0
SYMATTR InstName D2
SYMATTR Value 1N4148
SYMBOL POLCAP 1568 704 R0
SYMATTR InstName C1
SYMATTR Value .1
SYMBOL POLCAP 1920 816 R0
SYMATTR InstName C2
SYMATTR Value 100
SYMATTR SpiceLine Rser=0.05
SYMBOL POLCAP 1136 720 R0
SYMATTR InstName C3
SYMATTR Value 4.7
SYMATTR SpiceLine Rser=0.02
SYMBOL IND 1648 800 R270
WINDOW 0 32 56 VTop 0
WINDOW 3 5 56 VBottom 0
SYMATTR InstName L1
SYMATTR Value 10
SYMATTR SpiceLine Rser=0.02 Rpar=5000
SYMBOL VOLTAGE 1056 688 R0
SYMATTR InstName V1
SYMATTR Value 6.2
SYMATTR SpiceLine Rser=0.1
SYMBOL cap 1136 896 R90
WINDOW 3 32 32 VTop 0
WINDOW 0 0 32 VBottom 0
SYMATTR Value 10n
SYMATTR InstName C4
SYMBOL PowerProducts\\LT1375HV 1392 848 R0
SYMATTR InstName U1
SYMBOL res 2016 784 R0
SYMATTR InstName R4
SYMATTR Value 10
TEXT 1872 1024 Left 0 !.tran 1m startup
