Version 4
SHEET 1 2764 1608
WIRE 1472 1168 1360 1168
WIRE 1584 1168 1472 1168
WIRE 1776 1168 1584 1168
WIRE 1360 1200 1360 1168
WIRE 1776 1200 1776 1168
WIRE 1472 1216 1472 1168
WIRE 1584 1264 1584 1168
WIRE 1632 1264 1584 1264
WIRE 2000 1264 1920 1264
WIRE 2048 1264 2000 1264
WIRE 2176 1264 2128 1264
WIRE 2240 1264 2176 1264
WIRE 2352 1264 2240 1264
WIRE 2352 1280 2352 1264
WIRE 2240 1296 2240 1264
WIRE 1360 1312 1360 1280
WIRE 1472 1312 1472 1280
WIRE 2000 1312 2000 1264
WIRE 1584 1344 1584 1264
WIRE 1632 1344 1584 1344
WIRE 1936 1344 1920 1344
WIRE 2240 1376 2240 1360
WIRE 2352 1376 2352 1360
WIRE 2000 1392 2000 1376
WIRE 1632 1424 1616 1424
WIRE 2176 1424 2176 1264
WIRE 2176 1424 1920 1424
WIRE 1776 1504 1776 1488
FLAG 1360 1312 0
FLAG 2000 1392 0
FLAG 2240 1376 0
FLAG 2352 1376 0
FLAG 1776 1504 0
FLAG 1472 1312 0
FLAG 2352 1264 OUT
FLAG 1360 1168 IN
SYMBOL VOLTAGE 1360 1184 R0
SYMATTR InstName V1
SYMATTR Value 10
SYMBOL ind 2032 1280 R270
WINDOW 0 32 56 VTop 0
WINDOW 3 5 56 VBottom 0
SYMATTR InstName L1
SYMATTR Value 100µ
SYMBOL schottky 1984 1376 M180
WINDOW 0 24 72 Left 0
WINDOW 3 24 0 Left 0
SYMATTR InstName D1
SYMATTR Value MBR0530L
SYMBOL polcap 1456 1216 R0
SYMATTR InstName C2
SYMATTR Value 10µ
SYMBOL polcap 2224 1296 R0
SYMATTR InstName C1
SYMATTR Value 100µ
SYMBOL PowerProducts\\LTC1475-3.3 1776 1344 R0
SYMATTR InstName U1
SYMBOL res 2336 1264 R0
SYMATTR InstName Rload
SYMATTR Value 20
TEXT 2016 1496 Left 0 !.tran 3m startup
