Version 4
SHEET 1 1612 832
WIRE 784 336 336 336
WIRE 336 368 336 336
WIRE 784 384 784 336
WIRE 1120 400 992 400
WIRE 1280 400 1120 400
WIRE 1440 400 1280 400
WIRE 1120 416 1120 400
WIRE 1280 416 1280 400
WIRE 1440 416 1440 400
WIRE 512 448 432 448
WIRE 640 448 512 448
WIRE 992 448 992 400
WIRE 992 448 928 448
WIRE 512 464 512 448
WIRE 336 480 336 448
WIRE 432 496 432 448
WIRE 1280 512 1280 496
WIRE 1280 512 928 512
WIRE 1440 512 1440 496
WIRE 1280 528 1280 512
WIRE 512 544 512 528
WIRE 640 544 512 544
WIRE 512 560 512 544
WIRE 976 576 928 576
WIRE 1088 576 1040 576
WIRE 1184 576 1168 576
WIRE 1440 608 1440 592
WIRE 1280 624 1280 608
WIRE 432 640 432 576
WIRE 512 640 512 624
WIRE 512 640 432 640
WIRE 640 640 512 640
WIRE 976 640 928 640
WIRE 1040 640 976 640
WIRE 1152 640 1104 640
WIRE 512 656 512 640
WIRE 976 656 976 640
WIRE 1152 656 1152 640
WIRE 512 736 512 720
WIRE 784 752 784 704
WIRE 976 752 976 736
WIRE 1152 752 1152 736
FLAG 336 480 0
FLAG 784 752 0
FLAG 1440 608 0
FLAG 1280 624 0
FLAG 1184 576 0
FLAG 1152 752 0
FLAG 976 752 0
FLAG 1120 480 0
FLAG 512 736 0
FLAG 1440 400 BAT
FLAG 336 336 IN
SYMBOL VOLTAGE 336 352 R0
SYMATTR InstName V1
SYMATTR Value 14
SYMBOL ind 448 592 R180
WINDOW 0 0 80 Right 0
WINDOW 3 1 35 Right 0
SYMATTR InstName L1
SYMATTR Value 10
SYMBOL cap 496 560 R0
WINDOW 3 24 57 Left 0
SYMATTR Value .22
SYMATTR InstName C1
SYMBOL diode 496 464 R0
WINDOW 3 26 60 Left 0
SYMATTR Value 1N4148
SYMATTR InstName D1
SYMBOL RES 1264 400 R0
SYMATTR InstName R1
SYMATTR Value 70.6K
SYMBOL res 1264 512 R0
SYMATTR InstName R2
SYMATTR Value 100K
SYMBOL res 1072 592 R270
WINDOW 0 32 56 VTop 0
WINDOW 3 0 56 VBottom 0
SYMATTR InstName R3
SYMATTR Value 1K
SYMBOL cap 1040 560 R90
WINDOW 0 0 32 VBottom 0
WINDOW 3 32 32 VTop 0
SYMATTR InstName C2
SYMATTR Value .1
SYMBOL RES 1424 400 R0
SYMATTR InstName R4
SYMATTR Value 1
SYMBOL VOLTAGE 1440 496 R0
SYMATTR InstName V2
SYMATTR Value 3
SYMBOL res 1136 640 R0
SYMATTR InstName R5
SYMATTR Value 300
SYMBOL cap 1104 624 R90
WINDOW 0 0 32 VBottom 0
WINDOW 3 32 32 VTop 0
SYMATTR InstName C3
SYMATTR Value 1
SYMBOL res 960 640 R0
SYMATTR InstName R6
SYMATTR Value 6.19K
SYMBOL cap 1104 416 R0
WINDOW 3 32 52 Left 0
SYMATTR Value 22
SYMATTR InstName C4
SYMBOL schottky 496 720 M180
WINDOW 0 33 60 Left 0
WINDOW 3 24 0 Left 0
SYMATTR InstName D2
SYMATTR Value 1N5818
SYMBOL PowerProducts\\LT1510-5 784 544 R0
SYMATTR InstName U1
TEXT 1272 728 Left 0 !.tran 5m startup
