Version 4
SHEET 1 2792 2672
WIRE 2336 2272 1936 2272
WIRE 1936 2352 1936 2272
WIRE 1984 2352 1936 2352
WIRE 2528 2352 2272 2352
WIRE 2640 2352 2528 2352
WIRE 2528 2368 2528 2352
WIRE 2640 2368 2640 2352
WIRE 1984 2416 1952 2416
WIRE 2336 2416 2336 2272
WIRE 2336 2416 2272 2416
WIRE 2432 2416 2336 2416
WIRE 2432 2432 2432 2416
WIRE 2528 2464 2528 2432
WIRE 2640 2464 2640 2448
WIRE 1984 2480 1952 2480
WIRE 2336 2480 2272 2480
WIRE 1984 2544 1952 2544
WIRE 2336 2544 2272 2544
WIRE 2432 2544 2432 2512
WIRE 1952 2576 1952 2544
FLAG 2432 2544 0
FLAG 1952 2576 0
FLAG 2528 2464 0
FLAG 2640 2464 0
FLAG 2640 2352 OUT
FLAG 2432 2416 IN
SYMBOL cap 2320 2480 R0
SYMATTR InstName C5
SYMATTR Value 1µ
SYMBOL voltage 2432 2416 R0
SYMATTR InstName V2
SYMATTR Value 3
SYMBOL cap 2512 2368 R0
SYMATTR InstName C1
SYMATTR Value 100µ
SYMBOL res 2624 2352 R0
SYMATTR InstName Rload
SYMATTR Value 100
SYMBOL PowerProducts\\LTC1514-3.3 2128 2448 R0
SYMATTR InstName U1
TEXT 2336 2608 Left 0 !.tran 5m startup
