Version 4
SHEET 1 1600 908
WIRE 240 128 224 128
WIRE 576 128 528 128
WIRE 624 128 576 128
WIRE 736 128 624 128
WIRE 624 144 624 128
WIRE 736 160 736 128
WIRE 240 192 176 192
WIRE 576 192 576 128
WIRE 576 192 528 192
WIRE 176 208 176 192
WIRE 240 256 224 256
WIRE 624 256 624 224
WIRE 624 256 528 256
WIRE 736 272 736 240
WIRE -16 320 -144 320
WIRE 80 320 -16 320
WIRE 240 320 80 320
WIRE 544 320 528 320
WIRE -144 336 -144 320
WIRE -16 336 -16 320
WIRE 80 336 80 320
WIRE 176 384 176 272
WIRE 240 384 176 384
WIRE 656 384 528 384
WIRE -144 432 -144 416
WIRE -16 432 -16 400
WIRE 80 432 80 416
WIRE 176 432 80 432
WIRE 80 448 80 432
WIRE 240 448 224 448
WIRE 544 448 528 448
WIRE 624 448 608 448
WIRE 240 512 224 512
WIRE 544 512 528 512
WIRE 80 544 80 528
WIRE 240 576 224 576
WIRE 544 576 528 576
WIRE 176 640 176 432
WIRE 656 640 656 384
WIRE 656 640 176 640
FLAG -144 432 0
FLAG -16 432 0
FLAG 736 272 0
FLAG 224 448 0
FLAG 224 512 0
FLAG 624 448 0
FLAG 80 544 0
FLAG -144 320 OUT
FLAG 736 128 IN
SYMBOL VOLTAGE 736 144 R0
SYMATTR InstName V1
SYMATTR Value 4.5
SYMBOL cap 160 208 R0
SYMATTR InstName C1
SYMATTR Value .1µ
SYMBOL cap -32 336 R0
SYMATTR InstName C2
SYMATTR Value 10µ
SYMBOL res 608 128 R0
SYMATTR InstName R1
SYMATTR Value 10K
SYMBOL cap 544 464 R270
WINDOW 0 32 32 VTop 0
WINDOW 3 0 32 VBottom 0
SYMATTR InstName C3
SYMATTR Value .1µ
SYMBOL res 64 320 R0
SYMATTR InstName R2
SYMATTR Value 100K
SYMBOL res 64 432 R0
SYMATTR InstName R3
SYMATTR Value 100K
SYMBOL PowerProducts\\LTC1550L 384 224 R0
SYMATTR InstName U1
SYMBOL res -160 320 R0
SYMATTR InstName Rload
SYMATTR Value 1K
TEXT 724 636 Left 0 !.tran 1m startup
