Version 4
SHEET 1 1600 908
WIRE 544 32 144 32
WIRE 240 112 224 112
WIRE 544 112 544 32
WIRE 544 112 528 112
WIRE 240 176 -96 176
WIRE 560 176 528 176
WIRE 656 176 624 176
WIRE -96 192 -96 176
WIRE 240 240 224 240
WIRE 544 240 528 240
WIRE -96 288 -96 272
WIRE 144 304 144 32
WIRE 144 304 32 304
WIRE 240 304 144 304
WIRE 544 304 528 304
WIRE 32 320 32 304
WIRE 144 336 144 304
WIRE 224 416 224 240
WIRE 368 416 224 416
WIRE 544 416 544 304
WIRE 544 416 432 416
WIRE 32 432 32 400
WIRE 144 432 144 400
FLAG 656 176 0
FLAG 544 240 0
FLAG 32 432 0
FLAG 144 432 0
FLAG -96 288 0
FLAG 224 112 0
FLAG 32 304 OUT
FLAG -96 176 IN
SYMBOL voltage -96 176 R0
SYMATTR InstName V1
SYMATTR Value 4.5
SYMBOL cap 432 400 R90
WINDOW 0 0 32 VBottom 0
WINDOW 3 32 32 VTop 0
SYMATTR InstName C1
SYMATTR Value .1µ
SYMBOL cap 560 192 R270
WINDOW 0 32 32 VTop 0
WINDOW 3 0 32 VBottom 0
SYMATTR InstName C2
SYMATTR Value .1µ
SYMBOL cap 128 336 R0
SYMATTR InstName C3
SYMATTR Value 10µ
SYMBOL res 16 304 R0
SYMATTR InstName Rload
SYMATTR Value 1K
SYMBOL PowerProducts\\LTC1551CS8-4.1 384 208 R0
SYMATTR InstName U1
TEXT 540 484 Left 0 !.tran 1.5m
