Version 4
SHEET 1 3048 1496
WIRE 1440 544 1392 544
WIRE 1536 544 1440 544
WIRE 1632 544 1536 544
WIRE 1728 544 1632 544
WIRE 1808 544 1728 544
WIRE 1856 544 1808 544
WIRE 2320 544 1856 544
WIRE 2432 544 2320 544
WIRE 2624 544 2432 544
WIRE 1728 560 1728 544
WIRE 1856 560 1856 544
WIRE 1536 576 1536 544
WIRE 2000 576 1968 576
WIRE 2112 576 2000 576
WIRE 2224 576 2112 576
WIRE 2624 576 2624 544
WIRE 2000 592 2000 576
WIRE 2112 592 2112 576
WIRE 2224 608 2224 576
WIRE 1440 640 1440 544
WIRE 1632 640 1632 544
WIRE 1728 640 1728 624
WIRE 1856 640 1856 624
WIRE 2320 640 2320 544
WIRE 2000 672 2000 656
WIRE 2112 672 2112 656
WIRE 2624 688 2624 656
WIRE 1808 720 1808 544
WIRE 1968 720 1968 576
WIRE 2224 720 2224 688
WIRE 1632 784 1632 720
WIRE 1632 784 1344 784
WIRE 1696 784 1632 784
WIRE 2320 800 2320 720
WIRE 2320 800 2080 800
WIRE 2432 800 2432 544
WIRE 1536 848 1536 656
WIRE 1536 848 1344 848
WIRE 1696 848 1536 848
WIRE 2384 880 2080 880
WIRE 1440 912 1440 720
WIRE 1440 912 1344 912
WIRE 1696 912 1440 912
WIRE 2128 960 2080 960
WIRE 2432 960 2432 896
WIRE 2432 960 2208 960
WIRE 2496 960 2432 960
WIRE 2624 960 2576 960
WIRE 2672 960 2624 960
WIRE 2768 960 2672 960
WIRE 1696 976 1664 976
WIRE 2768 976 2768 960
WIRE 2672 992 2672 960
WIRE 1664 1040 1664 976
WIRE 1696 1040 1664 1040
WIRE 2384 1040 2080 1040
WIRE 2672 1072 2672 1056
WIRE 2768 1072 2768 1056
WIRE 2432 1088 2432 1056
WIRE 1664 1104 1664 1040
WIRE 1664 1104 1632 1104
WIRE 1696 1104 1664 1104
WIRE 2464 1120 2080 1120
WIRE 2624 1120 2624 960
WIRE 2624 1120 2464 1120
WIRE 2464 1136 2464 1120
WIRE 1664 1168 1664 1104
WIRE 1696 1168 1664 1168
WIRE 2208 1200 2080 1200
WIRE 2256 1200 2208 1200
WIRE 2352 1200 2336 1200
WIRE 2464 1216 2464 1200
WIRE 1664 1232 1664 1168
WIRE 1696 1232 1664 1232
WIRE 2208 1232 2208 1200
WIRE 2352 1248 2352 1200
WIRE 2128 1280 2080 1280
WIRE 1392 1296 1392 544
WIRE 1696 1296 1392 1296
WIRE 2128 1296 2128 1280
WIRE 2208 1328 2208 1296
WIRE 2352 1328 2352 1312
WIRE 1808 1392 1808 1360
WIRE 1968 1392 1968 1360
WIRE 2128 1392 2128 1360
FLAG 2672 1072 0
FLAG 2768 1072 0
FLAG 2768 960 OUT
FLAG 2432 1088 0
FLAG 2352 1328 0
FLAG 2208 1328 0
FLAG 2112 672 0
FLAG 2000 672 0
FLAG 2128 1392 0
FLAG 1808 1392 0
FLAG 1968 1392 0
FLAG 2624 688 0
FLAG 1632 1104 0
FLAG 1856 640 0
FLAG 1728 640 0
FLAG 2224 720 0
FLAG 1344 912 _OT
FLAG 1344 848 _FAULT
FLAG 1344 784 PWRGD
FLAG 2464 1216 0
FLAG 2624 544 IN
SYMBOL ind 2480 976 R270
WINDOW 0 32 56 VTop 0
WINDOW 3 5 56 VBottom 0
SYMATTR InstName L1
SYMATTR Value 2
SYMBOL VOLTAGE 2624 560 R0
SYMATTR InstName V1
SYMATTR Value 5
SYMBOL NMOS 2384 960 R0
WINDOW 123 60 108 Left 0
SYMATTR Value2 m=2
SYMATTR InstName Q1
SYMATTR Value Si4410DY
SYMBOL cap 2192 1232 R0
SYMATTR InstName C1
SYMATTR Value 150p
SYMBOL cap 2336 1248 R0
SYMATTR InstName C2
SYMATTR Value .01
SYMBOL res 2352 1184 R90
WINDOW 0 0 56 VBottom 0
WINDOW 3 32 56 VTop 0
SYMATTR InstName R1
SYMATTR Value 8.2K
SYMBOL res 2304 624 R0
SYMATTR InstName R2
SYMATTR Value 2.7K
SYMBOL NMOS 2384 800 R0
WINDOW 0 56 12 Left 0
WINDOW 3 56 48 Left 0
WINDOW 123 56 84 Left 0
SYMATTR InstName Q2
SYMATTR Value Si4410DY
SYMATTR Value2 m=2
SYMBOL res 2224 944 R90
WINDOW 0 0 56 VBottom 0
WINDOW 3 32 56 VTop 0
SYMATTR InstName R3
SYMATTR Value 20
SYMBOL polcap 2656 992 R0
WINDOW 123 25 58 Left 0
WINDOW 3 38 34 Left 0
SYMATTR Value2 x7
SYMATTR SpiceLine Rser=.1
SYMATTR InstName C3
SYMATTR Value 330
SYMBOL cap 2112 1296 R0
SYMATTR InstName C4
SYMATTR Value .01
SYMBOL res 1616 624 R0
SYMATTR InstName R4
SYMATTR Value 5.6K
SYMBOL res 1520 560 R0
SYMATTR InstName R5
SYMATTR Value 5.6K
SYMBOL res 1424 624 R0
SYMATTR InstName R6
SYMATTR Value 5.6K
SYMBOL cap 1712 560 R0
SYMATTR InstName C5
SYMATTR Value .1
SYMBOL polcap 1840 560 R0
SYMATTR InstName C6
SYMATTR Value 10
SYMBOL VOLTAGE 2224 592 R0
SYMATTR InstName V2
SYMATTR Value 12
SYMBOL polcap 2096 592 R0
SYMATTR InstName C7
SYMATTR Value 10
SYMBOL cap 1984 592 R0
SYMATTR InstName C8
SYMATTR Value .1
SYMBOL cap 2448 1136 R0
SYMATTR InstName C9
SYMATTR Value .1
SYMBOL PowerProducts\\LTC1553L 1888 1040 R0
SYMATTR InstName U1
SYMBOL res 2752 960 R0
SYMATTR InstName Rload
SYMATTR Value .2
TEXT 2512 1264 Left 0 !.tran 2m startup
