Version 4
SHEET 1 1732 1072
WIRE 16 112 -112 112
WIRE 352 112 304 112
WIRE 448 112 416 112
WIRE 608 112 528 112
WIRE -64 208 -80 208
WIRE 16 208 0 208
WIRE 608 208 608 112
WIRE 608 208 304 208
WIRE 16 304 -16 304
WIRE 416 304 304 304
WIRE 512 304 416 304
WIRE 752 304 512 304
WIRE 752 320 752 304
WIRE 512 352 512 304
WIRE 16 400 -16 400
WIRE 320 400 304 400
WIRE 416 400 416 384
WIRE 416 400 400 400
WIRE 448 400 416 400
WIRE 752 416 752 400
WIRE 608 448 608 208
WIRE 608 448 512 448
WIRE 704 448 608 448
WIRE 512 464 512 448
WIRE 704 464 704 448
WIRE 608 480 608 448
WIRE 512 560 512 528
WIRE 704 560 704 544
WIRE -112 592 -112 112
WIRE 608 592 608 560
WIRE 608 592 -112 592
WIRE 608 608 608 592
WIRE 608 704 608 688
FLAG -16 400 0
FLAG -16 304 0
FLAG -80 208 0
FLAG 704 560 0
FLAG 608 704 0
FLAG 512 560 0
FLAG 752 416 0
SYMBOL PowerProducts\\LT1573 160 256 R0
SYMATTR InstName U1
SYMBOL cap 416 96 R90
WINDOW 0 0 32 VBottom 0
WINDOW 3 32 32 VTop 0
SYMATTR InstName C1
SYMATTR Value 100p
SYMBOL res 544 96 R90
WINDOW 0 0 56 VBottom 0
WINDOW 3 32 56 VTop 0
SYMATTR InstName R1
SYMATTR Value 1K
SYMBOL pnp 448 448 M180
WINDOW 0 54 63 Left 0
WINDOW 3 46 26 Left 0
SYMATTR InstName Q1
SYMATTR Value D45H11
SYMBOL res 416 384 R90
WINDOW 0 0 56 VBottom 0
WINDOW 3 32 56 VTop 0
SYMATTR InstName R2
SYMATTR Value 24
SYMBOL res 400 288 R0
SYMATTR InstName R3
SYMATTR Value 50
SYMBOL cap 0 192 R90
WINDOW 0 0 32 VBottom 0
WINDOW 3 32 32 VTop 0
SYMATTR InstName C2
SYMATTR Value .5µ
SYMBOL cap 496 464 R0
SYMATTR InstName C3
SYMATTR Value 250µ
SYMATTR SpiceLine Rser=.1
SYMBOL res 592 464 R0
WINDOW 0 29 46 Left 0
WINDOW 3 27 79 Left 0
SYMATTR InstName R4
SYMATTR Value 1.6K
SYMBOL res 592 592 R0
SYMATTR InstName R5
SYMATTR Value 1K
SYMBOL voltage 752 304 R0
SYMATTR InstName V1
SYMATTR Value 5
SYMBOL res 688 448 R0
SYMATTR InstName Rload
SYMATTR Value 1
TEXT 752 632 Left 0 !.tran 1m startup
