Version 4
SHEET 1 1492 912
WIRE 368 512 272 512
WIRE 448 512 368 512
WIRE 624 512 448 512
WIRE 272 544 272 512
WIRE 624 544 624 512
WIRE 368 560 368 512
WIRE 448 608 448 512
WIRE 496 608 448 608
WIRE 784 608 752 608
WIRE 896 608 864 608
WIRE 976 608 896 608
WIRE 976 624 976 608
WIRE 272 656 272 624
WIRE 368 656 368 624
WIRE 448 672 448 608
WIRE 496 672 448 672
WIRE 896 672 896 608
WIRE 896 672 752 672
WIRE 896 688 896 672
WIRE 976 720 976 704
WIRE 624 768 624 736
WIRE 896 768 896 752
FLAG 976 608 OUT
FLAG 896 768 0
FLAG 976 720 0
FLAG 368 656 0
FLAG 624 768 0
FLAG 272 656 0
FLAG 272 512 IN
SYMBOL VOLTAGE 272 528 R0
SYMATTR InstName V1
SYMATTR Value 9
SYMATTR SpiceLine Rser=0.1
SYMBOL IND 768 624 R270
WINDOW 0 32 56 VTop 0
WINDOW 3 5 56 VBottom 0
SYMATTR InstName L1
SYMATTR Value 100µ
SYMATTR SpiceLine Rser=0.02 Rpar=5000
SYMBOL POLCAP 880 688 R0
SYMATTR InstName C2
SYMATTR Value 100µ
SYMATTR SpiceLine Rser=0.02
SYMBOL POLCAP 352 560 R0
SYMATTR InstName C1
SYMATTR Value 45µ
SYMATTR SpiceLine Rser=0.02
SYMBOL PowerProducts\\LTC1574-3.3 624 624 R0
SYMATTR InstName U1
SYMBOL res 960 608 R0
SYMATTR InstName Rload
SYMATTR Value 10
TEXT 680 800 Left 0 !.tran 3m startup
