Version 4
SHEET 1 880 680
WIRE 32 176 -160 176
WIRE 352 176 288 176
WIRE 448 176 352 176
WIRE -160 192 -160 176
WIRE 352 192 352 176
WIRE 448 192 448 176
WIRE -160 288 -160 272
WIRE 352 288 352 256
WIRE 448 288 448 272
WIRE 160 304 160 272
FLAG -160 288 0
FLAG 352 288 0
FLAG 448 288 0
FLAG 160 304 0
FLAG -160 176 IN
FLAG 448 176 OUT
SYMBOL voltage -160 176 R0
SYMATTR InstName V1
SYMATTR Value PWL(0 0 1 10)
SYMBOL cap 336 192 R0
SYMATTR InstName C1
SYMATTR Value 22µ
SYMBOL res 432 176 R0
SYMATTR InstName R3
SYMATTR Value 500
SYMBOL PowerProducts\\LT1585-3.6 160 176 R0
SYMATTR InstName U1
TEXT 320 352 Left 2 !.tran 1
