Version 4
SHEET 1 2572 1924
WIRE -1104 400 -1328 400
WIRE -832 400 -1104 400
WIRE -384 400 -832 400
WIRE 192 400 -384 400
WIRE -1104 432 -1104 400
WIRE -576 432 -688 432
WIRE -496 432 -576 432
WIRE -240 432 -496 432
WIRE 32 432 -240 432
WIRE -576 448 -576 432
WIRE -688 480 -688 432
WIRE 32 480 32 432
WIRE -832 496 -832 400
WIRE -384 496 -384 400
WIRE -240 496 -240 432
WIRE -96 496 -96 480
WIRE 192 496 192 400
WIRE -1104 528 -1104 512
WIRE -576 528 -576 512
WIRE -464 576 -784 576
WIRE 144 576 -16 576
WIRE -1328 656 -1328 400
WIRE -832 672 -832 592
WIRE -784 672 -832 672
WIRE -688 672 -688 544
WIRE -688 672 -720 672
WIRE -464 672 -688 672
WIRE 32 672 32 544
WIRE 32 672 -16 672
WIRE 80 672 32 672
WIRE 192 672 192 592
WIRE 192 672 144 672
WIRE -1120 768 -1152 768
WIRE -992 768 -1040 768
WIRE -832 768 -832 672
WIRE -832 768 -992 768
WIRE -464 768 -832 768
WIRE 192 768 192 672
WIRE 192 768 -16 768
WIRE 352 768 192 768
WIRE 400 768 352 768
WIRE 528 768 480 768
WIRE -832 784 -832 768
WIRE 192 784 192 768
WIRE -992 800 -992 768
WIRE 352 800 352 768
WIRE -464 864 -784 864
WIRE 144 864 -16 864
WIRE 192 896 192 880
WIRE 352 896 352 864
WIRE -992 912 -992 864
WIRE -832 912 -832 880
WIRE -1152 960 -1152 768
WIRE -704 960 -1152 960
WIRE -464 960 -704 960
WIRE 96 960 -16 960
WIRE 528 960 528 768
WIRE 528 960 96 960
WIRE -704 976 -704 960
WIRE 96 976 96 960
WIRE -1152 1056 -1152 1040
WIRE -704 1056 -704 1040
WIRE -704 1056 -1152 1056
WIRE -464 1056 -704 1056
WIRE 96 1056 96 1040
WIRE 96 1056 -16 1056
WIRE 528 1056 528 1040
WIRE 528 1056 96 1056
WIRE -1152 1152 -1152 1056
WIRE -1152 1152 -1280 1152
WIRE -1024 1152 -1152 1152
WIRE -864 1152 -944 1152
WIRE -464 1152 -864 1152
WIRE 272 1152 -16 1152
WIRE 384 1152 272 1152
WIRE 528 1152 528 1056
WIRE 528 1152 464 1152
WIRE 624 1152 528 1152
WIRE -1280 1168 -1280 1152
WIRE -1152 1168 -1152 1152
WIRE -864 1168 -864 1152
WIRE 272 1168 272 1152
WIRE 528 1168 528 1152
WIRE 624 1168 624 1152
WIRE -672 1248 -704 1248
WIRE -576 1248 -592 1248
WIRE -464 1248 -512 1248
WIRE 0 1248 -16 1248
WIRE 96 1248 64 1248
WIRE 208 1248 176 1248
WIRE -1280 1264 -1280 1248
WIRE -1152 1264 -1152 1232
WIRE -864 1264 -864 1248
WIRE 272 1264 272 1248
WIRE 528 1264 528 1232
WIRE 624 1264 624 1248
WIRE -608 1344 -704 1344
WIRE -464 1344 -544 1344
WIRE 48 1344 -16 1344
WIRE 208 1344 112 1344
WIRE -496 1440 -496 432
WIRE -464 1440 -496 1440
WIRE 16 1440 -16 1440
WIRE -1328 1552 -1328 736
WIRE -464 1552 -1328 1552
WIRE 16 1552 -16 1552
WIRE 112 1552 96 1552
WIRE 192 1552 176 1552
WIRE -240 1664 -240 1632
WIRE -384 1680 -384 1632
WIRE -96 1680 -96 1632
WIRE -240 1760 -240 1744
FLAG -240 1760 0
FLAG -96 1680 0
FLAG -576 528 0
FLAG -832 912 0
FLAG -992 912 0
FLAG -704 1344 0
FLAG -704 1248 0
FLAG -1152 1264 0
FLAG -864 1264 0
FLAG -1280 1152 OUT1
FLAG -1104 528 0
FLAG 192 896 0
FLAG 352 896 0
FLAG 208 1344 0
FLAG 208 1248 0
FLAG 528 1264 0
FLAG 272 1264 0
FLAG 624 1152 OUT2
FLAG -1280 1264 0
FLAG 624 1264 0
FLAG -384 1680 0
FLAG 192 1552 0
FLAG -1104 400 IN
SYMBOL NMOS -784 496 M0
WINDOW 0 37 -15 Right 0
WINDOW 3 33 110 Right 0
SYMATTR InstName Q1
SYMATTR Value FDS6680A
SYMBOL nmos -784 784 M0
WINDOW 0 -3 25 Right 0
WINDOW 3 26 104 Right 0
SYMATTR InstName Q2
SYMATTR Value FDS6680A
SYMBOL cap -720 656 R90
WINDOW 0 0 32 VBottom 0
WINDOW 3 32 32 VTop 0
SYMATTR InstName C1
SYMATTR Value .1
SYMBOL schottky -704 480 R0
SYMATTR InstName D1
SYMATTR Value 1N5817
SYMBOL cap -592 448 R0
SYMATTR InstName C2
SYMATTR Value 1
SYMBOL schottky -1008 864 M180
WINDOW 0 24 72 Left 0
WINDOW 3 24 0 Left 0
SYMATTR InstName D2
SYMATTR Value 1N5817
SYMBOL ind -1024 784 M270
WINDOW 0 32 56 VTop 0
WINDOW 3 5 56 VBottom 0
SYMATTR InstName L1
SYMATTR Value 6.3
SYMATTR SpiceLine Rpar=10000
SYMBOL cap -720 976 R0
SYMATTR InstName C3
SYMATTR Value 1000p
SYMBOL res -880 1152 R0
SYMATTR InstName R1
SYMATTR Value 20K
SYMBOL res -928 1136 R90
WINDOW 0 0 56 VBottom 0
WINDOW 3 32 56 VTop 0
SYMATTR InstName R2
SYMATTR Value 105K
SYMBOL cap -1168 1168 R0
SYMATTR InstName C4
SYMATTR Value 47
SYMATTR SpiceLine Rser=15m
SYMBOL cap -512 1232 R90
WINDOW 0 0 32 VBottom 0
WINDOW 3 32 32 VTop 0
SYMATTR InstName C5
SYMATTR Value 220p
SYMBOL cap -544 1328 R90
WINDOW 0 0 32 VBottom 0
WINDOW 3 32 32 VTop 0
SYMATTR InstName C6
SYMATTR Value .002
SYMBOL res -576 1232 R90
WINDOW 0 0 56 VBottom 0
WINDOW 3 32 56 VTop 0
SYMATTR InstName R3
SYMATTR Value 15K
SYMBOL VOLTAGE -1104 416 R0
SYMATTR InstName V1
SYMATTR Value 7
SYMBOL nmos 144 496 R0
SYMATTR InstName Q3
SYMATTR Value FDS6680A
SYMBOL nmos 144 784 R0
SYMATTR InstName Q4
SYMATTR Value FDS6680A
SYMBOL cap 80 656 M90
WINDOW 0 0 32 VBottom 0
WINDOW 3 32 32 VTop 0
SYMATTR InstName C7
SYMATTR Value .1
SYMBOL schottky 16 480 R0
SYMATTR InstName D3
SYMATTR Value 1N5817
SYMBOL schottky 336 864 M180
WINDOW 0 24 72 Left 0
WINDOW 3 24 0 Left 0
SYMATTR InstName D4
SYMATTR Value 1N5817
SYMBOL res 512 944 R0
SYMATTR InstName R4
SYMATTR Value .01
SYMBOL cap 80 976 R0
SYMATTR InstName C8
SYMATTR Value 1000p
SYMBOL res 256 1152 R0
SYMATTR InstName R5
SYMATTR Value 20K
SYMBOL res 368 1136 M90
WINDOW 0 0 56 VBottom 0
WINDOW 3 32 56 VTop 0
SYMATTR InstName R6
SYMATTR Value 63.4K
SYMBOL cap 512 1168 R0
SYMATTR InstName C9
SYMATTR Value 47
SYMATTR SpiceLine Rser=15m
SYMBOL cap 0 1264 R270
WINDOW 0 32 32 VTop 0
WINDOW 3 0 32 VBottom 0
SYMATTR InstName C10
SYMATTR Value 220p
SYMBOL cap 48 1360 R270
WINDOW 0 32 32 VTop 0
WINDOW 3 0 32 VBottom 0
SYMATTR InstName C11
SYMATTR Value .002
SYMBOL res 80 1264 R270
WINDOW 0 32 56 VTop 0
WINDOW 3 0 56 VBottom 0
SYMATTR InstName R7
SYMATTR Value 15K
SYMBOL ind 384 784 R270
WINDOW 0 32 56 VTop 0
WINDOW 3 5 56 VBottom 0
SYMATTR InstName L2
SYMATTR Value 6.3
SYMATTR SpiceLine Rpar=10000
SYMBOL res -1168 944 R0
SYMATTR InstName R8
SYMATTR Value .01
SYMBOL RES -1344 640 R0
SYMATTR InstName R9
SYMATTR Value 10K
SYMBOL PowerProducts\\LTC1628-SYNC -240 960 R0
SYMATTR InstName U1
SYMBOL voltage -240 1648 R0
SYMATTR InstName V2
SYMATTR Value SIN(1 1 160K)
SYMBOL res 0 1568 R270
WINDOW 0 32 56 VTop 0
WINDOW 3 0 56 VBottom 0
SYMATTR InstName R10
SYMATTR Value 10K
SYMBOL cap 112 1568 R270
WINDOW 0 32 32 VTop 0
WINDOW 3 0 32 VBottom 0
SYMATTR InstName C12
SYMATTR Value 500p
SYMBOL RES -1296 1152 R0
SYMATTR InstName Rload1
SYMATTR Value 10
SYMBOL RES 608 1152 R0
SYMATTR InstName Rload2
SYMATTR Value 5
TEXT 352 1368 Left 0 !.tran 3.5m startup
TEXT 712 920 Left 0 ;Total elapsed time: 76.890 seconds.\nThread vector:  77.3[1]  91.6[1]   7.0[1]   7.3[1]  170탎/2592/500
TEXT 704 1048 Left 0 !.options threads=2 threads2=1 threadsquelch=1
TEXT 784 1168 Left 0 ;Total elapsed time: 88.558 seconds.\nThread vector:  76.7[2]  89.0[1]   6.7[1]   7.7[1]  0탎/2592/500
TEXT 696 688 Left 0 ;Total elapsed time: 77.291 seconds.\nThread vector:  76.0[1]  89.6[2]   6.5[1]   7.3[1]  45탎/2592/500
TEXT 1384 792 Left 0 ;Total elapsed time: 80.726/77.641/77.662 seconds. // cold threads\nThread vector:  75.7[1]  88.8[2]   7.0[1]   7.0[1]  45탎/2592/500
TEXT 1384 864 Left 0 ;Total elapsed time: 92.543/92.442/92.793 seconds. // cold threads\nThread vector:  75.8[2]  86.6[2]   6.7[1]   7.1[1]  45탎/2592/500
TEXT 1384 720 Left 0 ;Total elapsed time: 75.950/75.699 seconds.\nThread vector:  76.5[1]  90.8[1]   6.7[1]   7.2[1]  45탎/2592/500
TEXT 1520 1056 Left 0 ;Total elapsed time: 75.308 seconds.\nThread vector:  78.9[1]  90.2[1]   7.1[1]   7.4[1]  45000탎/2592/500
TEXT 1520 1136 Left 0 ;Total elapsed time: 88.067/87.736/88.718 seconds. // hot threads\nThread vector:  77.6[2]  90.8[1]   6.7[1]   7.3[1]  45탎/2592/500
TEXT 1528 1208 Left 0 ;Total elapsed time: 90.360 seconds. // hot threads\nThread vector:  77.7[2]  89.8[2]   6.5[1]   7.3[1]  20탎/2592/500
