Version 4
SHEET 1 880 680
WIRE -2720 -1888 -3648 -1888
WIRE -2704 -1888 -2720 -1888
WIRE -2608 -1888 -2624 -1888
WIRE -2544 -1888 -2608 -1888
WIRE -2240 -1888 -2448 -1888
WIRE -2176 -1888 -2240 -1888
WIRE -2048 -1888 -2176 -1888
WIRE -3648 -1872 -3648 -1888
WIRE -2176 -1872 -2176 -1888
WIRE -2048 -1872 -2048 -1888
WIRE -2464 -1792 -2464 -1840
WIRE -3648 -1776 -3648 -1792
WIRE -2176 -1776 -2176 -1808
WIRE -2048 -1776 -2048 -1792
WIRE -3168 -1648 -3648 -1648
WIRE -3152 -1648 -3168 -1648
WIRE -3056 -1648 -3072 -1648
WIRE -3024 -1648 -3056 -1648
WIRE -2832 -1648 -2928 -1648
WIRE -2176 -1648 -2832 -1648
WIRE -2048 -1648 -2176 -1648
WIRE -3648 -1632 -3648 -1648
WIRE -2176 -1632 -2176 -1648
WIRE -2048 -1632 -2048 -1648
WIRE -2944 -1552 -2944 -1600
WIRE -3648 -1536 -3648 -1552
WIRE -2176 -1536 -2176 -1568
WIRE -2048 -1536 -2048 -1552
WIRE -2944 -1456 -2944 -1472
WIRE -2464 -1456 -2464 -1712
WIRE -2464 -1456 -2944 -1456
WIRE -2448 -1456 -2464 -1456
WIRE -2352 -1456 -2368 -1456
WIRE -2272 -1456 -2288 -1456
WIRE -2240 -1392 -2240 -1888
WIRE -2240 -1392 -2480 -1392
WIRE -3168 -1376 -3168 -1648
WIRE -3056 -1376 -3056 -1648
WIRE -2944 -1376 -2944 -1456
WIRE -2832 -1376 -2832 -1648
WIRE -2720 -1376 -2720 -1888
WIRE -2608 -1376 -2608 -1888
WIRE -2480 -1376 -2480 -1392
WIRE -3248 -1280 -3280 -1280
WIRE -2176 -1280 -2400 -1280
WIRE -2048 -1280 -2176 -1280
WIRE -2048 -1264 -2048 -1280
WIRE -2176 -1248 -2176 -1280
WIRE -3696 -1216 -3712 -1216
WIRE -3248 -1216 -3616 -1216
WIRE -2272 -1168 -2400 -1168
WIRE -2176 -1168 -2176 -1184
WIRE -2048 -1168 -2048 -1184
WIRE -3248 -1152 -3456 -1152
WIRE -3696 -1088 -3712 -1088
WIRE -3456 -1088 -3456 -1152
WIRE -3456 -1088 -3616 -1088
WIRE -3248 -1088 -3408 -1088
WIRE -2272 -1072 -2272 -1168
WIRE -2176 -1072 -2272 -1072
WIRE -2048 -1072 -2176 -1072
WIRE -2384 -1056 -2400 -1056
WIRE -2304 -1056 -2320 -1056
WIRE -2176 -1056 -2176 -1072
WIRE -2048 -1056 -2048 -1072
WIRE -3248 -1024 -3360 -1024
WIRE -3360 -976 -3360 -1024
WIRE -3616 -960 -3632 -960
WIRE -3408 -960 -3408 -1088
WIRE -3408 -960 -3536 -960
WIRE -3248 -960 -3280 -960
WIRE -2176 -960 -2176 -992
WIRE -2048 -960 -2048 -976
WIRE -3280 -896 -3280 -960
WIRE -3520 -800 -3552 -800
WIRE -3360 -800 -3360 -896
WIRE -3360 -800 -3440 -800
WIRE -3280 -800 -3280 -816
WIRE -3280 -800 -3360 -800
FLAG -2176 -1776 0
FLAG -2048 -1776 0
FLAG -2272 -1456 0
FLAG -3632 -960 0
FLAG -3648 -1776 0
FLAG -2176 -1536 0
FLAG -2048 -1536 0
FLAG -3648 -1536 0
FLAG -3712 -1216 0
FLAG -3712 -1088 0
FLAG -3552 -800 0
FLAG -2176 -1168 0
FLAG -2048 -1168 0
FLAG -2176 -960 0
FLAG -2048 -960 0
FLAG -2304 -1056 0
FLAG -3280 -1280 0
SYMBOL res -2720 -1872 R270
WINDOW 0 32 56 VTop 2
WINDOW 3 0 56 VBottom 2
SYMATTR InstName R1
SYMATTR Value 7m
SYMBOL nmos -2544 -1840 R270
WINDOW 0 52 47 VTop 2
WINDOW 3 -7 77 VLeft 2
SYMATTR InstName Q1
SYMATTR Value IRF7413
SYMBOL res -2480 -1808 R0
SYMATTR InstName R2
SYMATTR Value 10
SYMBOL res -2352 -1472 R90
WINDOW 0 0 56 VBottom 2
WINDOW 3 32 56 VTop 2
SYMATTR InstName R3
SYMATTR Value 100
SYMBOL nmos -3024 -1600 R270
WINDOW 0 56 40 VTop 2
WINDOW 3 -10 76 VLeft 2
SYMATTR InstName Q2
SYMATTR Value IRF7413
SYMBOL res -2960 -1568 R0
SYMATTR InstName R4
SYMATTR Value 10
SYMBOL res -3168 -1632 R270
WINDOW 0 32 56 VTop 2
WINDOW 3 0 56 VBottom 2
SYMATTR InstName R5
SYMATTR Value 5m
SYMBOL cap -2352 -1440 R270
WINDOW 0 32 32 VTop 2
WINDOW 3 0 32 VBottom 2
SYMATTR InstName C1
SYMATTR Value 0.047µ
SYMBOL voltage -3648 -1888 R0
WINDOW 123 0 0 Left 2
WINDOW 39 0 0 Left 2
SYMATTR InstName V1
SYMATTR Value PULSE(0 5 5m 5m 5m 250m 300m)
SYMBOL voltage -3648 -1648 R0
SYMATTR InstName V2
SYMATTR Value PULSE(0 3.3 5m 5m 5m 250m 300m)
SYMBOL voltage -3600 -1216 R90
WINDOW 0 -32 56 VBottom 2
WINDOW 3 32 56 VTop 2
WINDOW 123 0 0 Left 2
WINDOW 39 0 0 Left 2
SYMATTR InstName V3
SYMATTR Value PULSE(0 12 5m 5m 5m 400m 450m)
SYMBOL voltage -3600 -1088 R90
WINDOW 0 -32 56 VBottom 2
WINDOW 3 32 56 VTop 2
SYMATTR InstName V4
SYMATTR Value PULSE(0 -12 5m 5m 5m 400m 450m)
SYMBOL voltage -3520 -960 R90
WINDOW 0 -32 56 VBottom 2
WINDOW 3 39 45 VTop 2
WINDOW 123 0 0 Left 2
WINDOW 39 0 0 Left 2
SYMATTR InstName V5
SYMATTR Value PWL(0 0 40m 0 +1u 3.3)
SYMBOL voltage -3424 -800 R90
WINDOW 0 -32 56 VBottom 2
WINDOW 3 32 56 VTop 2
SYMATTR InstName V6
SYMATTR Value 12
SYMBOL res -3376 -992 R0
SYMATTR InstName R6
SYMATTR Value 10K
SYMBOL cap -2192 -1632 R0
SYMATTR InstName C2
SYMATTR Value 30µ
SYMBOL cap -2192 -1248 R0
SYMATTR InstName C3
SYMATTR Value 10µ
SYMBOL cap -2192 -1056 R0
SYMATTR InstName C4
SYMATTR Value 10µ
SYMBOL cap -2384 -1040 R270
WINDOW 0 32 32 VTop 2
WINDOW 3 0 32 VBottom 2
SYMATTR InstName C5
SYMATTR Value 0.1µ
SYMBOL cap -2192 -1872 R0
SYMATTR InstName C6
SYMATTR Value 30µ
SYMBOL res -3296 -912 R0
SYMATTR InstName R7
SYMATTR Value 10K
SYMBOL LTC1643AH -2832 -1152 R0
SYMATTR InstName U1
SYMBOL res -2064 -1888 R0
SYMATTR InstName Rload1
SYMATTR Value 2
SYMBOL res -2064 -1648 R0
SYMATTR InstName Rload2
SYMATTR Value 0.87
SYMBOL res -2064 -1280 R0
SYMATTR InstName Rload3
SYMATTR Value 30
SYMBOL res -2064 -1072 R0
SYMATTR InstName Rload4
SYMATTR Value 150
TEXT -2048 -1888 Bottom 2 ;5V, 5A
TEXT -2048 -1648 Bottom 2 ;3.3V, 7.6A
TEXT -2048 -1280 Bottom 2 ;12V, 500mA
TEXT -2048 -1072 Bottom 2 ;-12V, -100mA
TEXT -2888 -872 Left 2 !.tran 550m
