Version 4
SHEET 1 2248 1272
WIRE 912 720 832 720
WIRE 1328 720 912 720
WIRE 832 752 832 720
WIRE 1168 768 1008 768
WIRE 1008 800 1008 768
WIRE 1168 816 1168 768
WIRE 1328 816 1328 720
WIRE 832 848 832 816
WIRE 1856 880 1392 880
WIRE 1008 912 1008 880
WIRE 1856 912 1856 880
WIRE 1744 944 1392 944
WIRE 912 960 912 720
WIRE 1104 976 960 976
WIRE 1744 992 1744 944
WIRE 1616 1008 1392 1008
WIRE 1008 1024 960 1024
WIRE 1856 1024 1856 992
WIRE 912 1056 912 1040
WIRE 1008 1056 1008 1024
WIRE 1488 1072 1392 1072
WIRE 1616 1072 1616 1008
WIRE 1744 1104 1744 1072
WIRE 1248 1136 1248 1120
WIRE 1488 1136 1488 1072
WIRE 1008 1152 1008 1136
WIRE 1616 1184 1616 1152
WIRE 1488 1248 1488 1216
FLAG 1008 912 0
FLAG 1248 1136 0
FLAG 1008 1152 0
FLAG 912 1056 0
FLAG 1856 1024 0
FLAG 1744 1104 0
FLAG 1616 1184 0
FLAG 1488 1248 0
FLAG 832 848 0
FLAG 832 720 OUT
SYMBOL voltage 1008 784 R0
SYMATTR InstName V1
SYMATTR Value 3.3
SYMBOL PowerProducts\\LTC1706-19 1248 976 R0
SYMATTR InstName U1
SYMBOL voltage 1008 1040 R0
SYMATTR InstName V2
SYMATTR Value 1.19
SYMBOL g2 912 944 M0
WINDOW 0 -18 8 Right 0
WINDOW 3 -18 97 Right 0
SYMATTR InstName G1
SYMATTR Value 100m
SYMBOL voltage 1856 896 R0
SYMATTR InstName V3
SYMATTR Value PULSE(0 2.4 0 1n 1n .5m 1m)
SYMBOL voltage 1744 976 R0
SYMATTR InstName V4
SYMATTR Value PULSE(0 2.4 0 1n 1n 1m 2m)
SYMBOL voltage 1616 1056 R0
SYMATTR InstName V5
SYMATTR Value PULSE(0 2.4 0 1n 1n 2m 4m)
SYMBOL voltage 1488 1120 R0
SYMATTR InstName V6
SYMATTR Value PULSE(0 2.4 0 1n 1n 4m 8m)
SYMBOL cap 816 752 R0
SYMATTR InstName C1
SYMATTR Value .1µ
TEXT 1912 1224 Left 0 !.tran 8m
