Version 4
SHEET 1 2284 1688
WIRE 1680 1280 1536 1280
WIRE 2096 1280 1968 1280
WIRE 1536 1312 1536 1280
WIRE 2096 1328 2096 1280
WIRE 1680 1376 1632 1376
WIRE 2032 1376 1968 1376
WIRE 1536 1424 1536 1392
WIRE 1584 1472 1568 1472
WIRE 1680 1472 1664 1472
WIRE 2032 1472 1968 1472
WIRE 2096 1472 2096 1424
WIRE 2096 1472 2032 1472
WIRE 2096 1504 2096 1472
WIRE 2096 1600 2096 1568
FLAG 1568 1472 0
FLAG 1632 1376 0
FLAG 1536 1424 0
FLAG 2096 1600 0
FLAG 2032 1472 BAT
SYMBOL VOLTAGE 1536 1296 R0
SYMATTR InstName V1
SYMATTR Value 7
SYMBOL RES 1680 1456 R90
WINDOW 0 0 56 VBottom 0
WINDOW 3 32 56 VTop 0
SYMATTR InstName R1
SYMATTR Value 1K
SYMBOL cap 2080 1504 R0
SYMATTR InstName C1
SYMATTR Value .1
SYMBOL PNP 2032 1424 M180
WINDOW 0 76 72 Left 0
WINDOW 3 76 36 Left 0
SYMATTR InstName Q1
SYMATTR Value 2N2907
SYMBOL PowerProducts\\LTC1734L-4.1 1824 1376 R0
SYMATTR InstName U1
TEXT 1824 1600 Left 0 !.tran 5 startup
