Version 4
SHEET 1 2712 1508
WIRE 1120 784 928 784
WIRE 1728 784 1120 784
WIRE 928 816 928 784
WIRE 1536 816 1408 816
WIRE 1648 816 1536 816
WIRE 1648 832 1648 816
WIRE 1120 848 1120 784
WIRE 1264 848 1264 832
WIRE 1408 848 1408 816
WIRE 1536 848 1536 816
WIRE 1648 912 1648 896
WIRE 1728 912 1728 784
WIRE 928 928 928 896
WIRE 1040 928 1024 928
WIRE 1536 928 1536 912
WIRE 1536 928 1488 928
WIRE 1680 992 1488 992
WIRE 1536 1008 1536 928
WIRE 928 1056 848 1056
WIRE 1040 1056 992 1056
WIRE 1536 1088 1536 1072
WIRE 1536 1088 1488 1088
WIRE 1728 1088 1728 1008
WIRE 1728 1088 1536 1088
WIRE 1872 1088 1728 1088
WIRE 1904 1088 1872 1088
WIRE 2032 1088 1984 1088
WIRE 2048 1088 2032 1088
WIRE 2144 1088 2128 1088
WIRE 2224 1088 2144 1088
WIRE 2336 1088 2224 1088
WIRE 2432 1088 2336 1088
WIRE 1728 1104 1728 1088
WIRE 2432 1104 2432 1088
WIRE 1872 1120 1872 1088
WIRE 2336 1120 2336 1088
WIRE 2224 1152 2224 1088
WIRE 864 1184 848 1184
WIRE 960 1184 944 1184
WIRE 1040 1184 1024 1184
WIRE 1680 1184 1488 1184
WIRE 2336 1200 2336 1184
WIRE 2432 1200 2432 1184
WIRE 1728 1216 1728 1200
WIRE 1872 1216 1872 1184
WIRE 2224 1248 2224 1232
WIRE 2224 1248 2176 1248
WIRE 2032 1264 2032 1088
WIRE 2032 1264 1488 1264
WIRE 2224 1264 2224 1248
WIRE 944 1312 896 1312
WIRE 1040 1312 1008 1312
WIRE 2144 1328 2144 1088
WIRE 2144 1328 1488 1328
WIRE 2224 1376 2224 1344
WIRE 2176 1392 2176 1248
WIRE 2176 1392 1488 1392
WIRE 1152 1488 1152 1456
WIRE 1376 1488 1376 1456
FLAG 1152 1488 0
FLAG 1376 1488 0
FLAG 848 1184 0
FLAG 848 1056 0
FLAG 2224 1376 0
FLAG 2432 1200 0
FLAG 2336 1200 0
FLAG 928 928 0
FLAG 1728 1216 0
FLAG 896 1312 0
FLAG 2432 1088 OUT
FLAG 1648 912 0
FLAG 1872 1216 0
FLAG 928 784 IN
SYMBOL RES 960 1168 R90
WINDOW 0 0 56 VBottom 0
WINDOW 3 32 56 VTop 0
SYMATTR InstName R1
SYMATTR Value 10K
SYMBOL res 2208 1136 R0
SYMATTR InstName R2
SYMATTR Value 20K
SYMBOL res 2208 1248 R0
SYMATTR InstName R3
SYMATTR Value 10K
SYMBOL res 2032 1072 M90
WINDOW 0 0 56 VBottom 0
WINDOW 3 32 56 VTop 0
SYMATTR InstName R4
SYMATTR Value .006
SYMBOL cap 1024 1168 R90
WINDOW 0 0 32 VBottom 0
WINDOW 3 32 32 VTop 0
SYMATTR InstName C1
SYMATTR Value 330p
SYMBOL cap 1008 1296 R90
WINDOW 0 0 32 VBottom 0
WINDOW 3 32 32 VTop 0
SYMATTR InstName C2
SYMATTR Value 43p
SYMBOL cap 992 1040 R90
WINDOW 0 0 32 VBottom 0
WINDOW 3 32 32 VTop 0
SYMATTR InstName C3
SYMATTR Value .001
SYMBOL polcap 2320 1120 R0
WINDOW 123 33 68 Left 0
WINDOW 3 33 42 Left 0
SYMATTR Value2 x4
SYMATTR InstName C4
SYMATTR Value 180
SYMATTR SpiceLine Rser=.1
SYMBOL VOLTAGE 928 800 R0
SYMATTR InstName V1
SYMATTR Value 6
SYMBOL ind 1888 1104 R270
WINDOW 0 32 56 VTop 0
WINDOW 3 5 56 VBottom 0
SYMATTR InstName L1
SYMATTR Value 1.5
SYMBOL NMOS 1680 912 R0
SYMATTR InstName Q1
SYMATTR Value Si4410DY
SYMBOL nmos 1680 1104 R0
SYMATTR InstName Q2
SYMATTR Value Si4410DY
SYMBOL cap 1632 832 R0
SYMATTR InstName C5
SYMATTR Value 4.7
SYMBOL cap 1520 1008 R0
SYMATTR InstName C6
SYMATTR Value .22
SYMBOL schottky 1520 848 R0
SYMATTR InstName D1
SYMATTR Value 1N5818
SYMBOL schottky 1856 1184 M180
WINDOW 0 24 72 Left 0
WINDOW 3 24 0 Left 0
SYMATTR InstName D2
SYMATTR Value 1N5818
SYMBOL PowerProducts\\LTC1735-1 1264 1120 R0
SYMATTR InstName U1
SYMBOL res 2416 1088 R0
SYMATTR InstName Rload
SYMATTR Value .5
TEXT 1856 1448 Left 0 !.tran 2m startup
