Version 4
SHEET 1 880 680
WIRE -16 48 -208 48
WIRE 16 48 -16 48
WIRE 320 48 304 48
WIRE 384 48 320 48
WIRE 480 48 384 48
WIRE -208 64 -208 48
WIRE 480 64 480 48
WIRE 384 80 384 48
WIRE -16 144 -16 48
WIRE 16 144 -16 144
WIRE 320 144 320 48
WIRE 320 144 304 144
WIRE -208 160 -208 144
WIRE 384 160 384 144
WIRE 480 160 480 144
WIRE 160 240 160 208
FLAG -208 160 0
FLAG 384 160 0
FLAG 480 160 0
FLAG 160 240 0
FLAG 480 48 OUT
FLAG -208 48 IN
SYMBOL voltage -208 48 R0
SYMATTR InstName V1
SYMATTR Value PWL(0 0 1 10)
SYMBOL cap 368 80 R0
SYMATTR InstName C1
SYMATTR Value 10µ
SYMBOL res 464 48 R0
SYMATTR InstName Rload
SYMATTR Value 500
SYMBOL PowerProducts\\LT1764A-3.3 160 96 R0
SYMATTR InstName U1
TEXT 368 240 Left 0 !.tran 1
