Version 4
SHEET 1 880 680
WIRE 32 48 -176 48
WIRE 336 48 288 48
WIRE 432 48 336 48
WIRE -176 64 -176 48
WIRE 432 64 432 48
WIRE 336 80 336 48
WIRE -176 160 -176 144
WIRE 336 160 336 144
WIRE 432 160 432 144
WIRE 160 176 160 160
FLAG -176 160 0
FLAG 336 160 0
FLAG 432 160 0
FLAG 160 176 0
FLAG 432 48 OUT
FLAG -176 48 IN
SYMBOL voltage -176 48 R0
SYMATTR InstName V1
SYMATTR Value PWL(0 0 1 10)
SYMBOL cap 320 80 R0
SYMATTR InstName C1
SYMATTR Value 1µ
SYMBOL res 416 48 R0
SYMATTR InstName Rload
SYMATTR Value 1K
SYMBOL PowerProducts\\LT1790-4.096 160 48 R0
SYMATTR InstName U1
TEXT 248 224 Left 0 !.tran 1
