Version 4
SHEET 1 880 680
WIRE 32 48 -176 48
WIRE 352 48 288 48
WIRE 448 48 352 48
WIRE -176 64 -176 48
WIRE 448 64 448 48
WIRE 352 80 352 48
WIRE -176 160 -176 144
WIRE 352 160 352 144
WIRE 448 160 448 144
WIRE 160 176 160 160
FLAG -176 160 0
FLAG 352 160 0
FLAG 448 160 0
FLAG 160 176 0
FLAG 448 48 OUT
FLAG -176 48 IN
SYMBOL voltage -176 48 R0
SYMATTR InstName V1
SYMATTR Value PWL(0 0 1 10)
SYMBOL cap 336 80 R0
SYMATTR InstName C1
SYMATTR Value 1µ
SYMBOL res 432 48 R0
SYMATTR InstName Rload
SYMATTR Value 1K
SYMBOL PowerProducts\\LT1790-2.048 160 48 R0
SYMATTR InstName U1
TEXT 272 216 Left 0 !.tran 1
