Version 4
SHEET 1 880 680
WIRE 0 48 -208 48
WIRE 320 48 256 48
WIRE 416 48 320 48
WIRE 416 64 416 48
WIRE -208 80 -208 48
WIRE 320 80 320 48
WIRE 320 160 320 144
WIRE 416 160 416 144
WIRE -208 192 -208 160
WIRE 128 192 128 160
FLAG -208 192 0
FLAG 320 160 0
FLAG 416 160 0
FLAG 128 192 0
FLAG 416 48 OUT
FLAG -208 48 IN
SYMBOL voltage -208 64 R0
SYMATTR InstName V1
SYMATTR Value PWL(0 0 1 10)
SYMBOL cap 304 80 R0
SYMATTR InstName C1
SYMATTR Value 1µ
SYMBOL res 400 48 R0
SYMATTR InstName Rload
SYMATTR Value 1K
SYMBOL PowerProducts\\LT1790-1.25 128 48 R0
SYMATTR InstName U2
TEXT 288 208 Left 0 !.tran 1
