Version 4
SHEET 1 2752 1392
WIRE 2032 880 1824 880
WIRE 2112 880 2032 880
WIRE 2224 880 2176 880
WIRE 2032 912 2032 880
WIRE 1824 992 1824 880
WIRE 2032 1008 2032 976
WIRE 2032 1008 2000 1008
WIRE 2112 1008 2032 1008
WIRE 2224 1008 2224 880
WIRE 2224 1008 2192 1008
WIRE 2352 1008 2224 1008
WIRE 2448 1008 2352 1008
WIRE 2352 1024 2352 1008
WIRE 2448 1024 2448 1008
WIRE 2224 1040 2224 1008
WIRE 1568 1056 1472 1056
WIRE 1680 1056 1568 1056
WIRE 2000 1056 2000 1008
WIRE 2000 1056 1968 1056
WIRE 2032 1056 2032 1008
WIRE 1568 1072 1568 1056
WIRE 1472 1088 1472 1056
WIRE 2352 1120 2352 1088
WIRE 2448 1120 2448 1104
WIRE 2032 1136 2032 1120
WIRE 1568 1184 1568 1152
WIRE 1680 1184 1568 1184
WIRE 2224 1184 2224 1120
WIRE 2224 1184 1968 1184
WIRE 1472 1200 1472 1168
WIRE 1568 1200 1568 1184
WIRE 2224 1200 2224 1184
WIRE 1824 1264 1824 1248
WIRE 1568 1280 1568 1264
WIRE 2224 1296 2224 1280
FLAG 1824 1264 0
FLAG 2224 1296 0
FLAG 2032 1136 0
FLAG 2352 1120 0
FLAG 1472 1200 0
FLAG 2448 1120 0
FLAG 2448 1008 OUT
FLAG 1568 1280 0
FLAG 1472 1056 IN
SYMBOL cap 2016 912 R0
SYMATTR InstName C1
SYMATTR Value .01
SYMBOL ind 2096 1024 R270
WINDOW 0 32 56 VTop 0
WINDOW 3 5 56 VBottom 0
SYMATTR InstName L1
SYMATTR Value 22
SYMBOL RES 2208 1024 R0
SYMATTR InstName R1
SYMATTR Value 16.5K
SYMBOL res 2208 1296 M180
WINDOW 0 36 76 Left 0
WINDOW 3 36 40 Left 0
SYMATTR InstName R2
SYMATTR Value 10K
SYMBOL schottky 2016 1120 M180
WINDOW 0 24 72 Left 0
WINDOW 3 24 0 Left 0
SYMATTR InstName D1
SYMATTR Value MBRS130L
SYMBOL schottky 2176 864 R90
WINDOW 0 0 32 VBottom 0
WINDOW 3 32 32 VTop 0
SYMATTR InstName D2
SYMATTR Value BAT54
SYMBOL VOLTAGE 1472 1072 R0
SYMATTR InstName V1
SYMATTR Value 5
SYMBOL cap 2336 1024 R0
SYMATTR InstName C2
SYMATTR Value 22
SYMBOL cap 1552 1200 R0
WINDOW 3 26 55 Left 0
SYMATTR Value .1
SYMATTR InstName C3
SYMBOL RES 1552 1056 R0
SYMATTR InstName R3
SYMATTR Value 15K
SYMBOL PowerProducts\\LT1934-1 1824 1120 R0
SYMATTR InstName U1
SYMBOL res 2432 1008 R0
SYMATTR InstName Rload
SYMATTR Value 100
TEXT 1992 1280 Left 0 !.tran 5m startup
