Version 4
SHEET 1 2460 1648
WIRE 1568 1184 1472 1184
WIRE 1680 1184 1568 1184
WIRE 1728 1184 1680 1184
WIRE 1840 1184 1808 1184
WIRE 1872 1184 1840 1184
WIRE 1984 1184 1936 1184
WIRE 2048 1184 1984 1184
WIRE 2048 1200 2048 1184
WIRE 1472 1216 1472 1184
WIRE 1984 1216 1984 1184
WIRE 1680 1280 1680 1184
WIRE 1840 1280 1840 1184
WIRE 1984 1296 1984 1280
WIRE 2048 1296 2048 1264
WIRE 1472 1328 1472 1296
WIRE 2048 1392 2048 1360
WIRE 1568 1488 1568 1184
WIRE 1616 1488 1568 1488
WIRE 2048 1488 2048 1456
WIRE 2048 1488 1904 1488
WIRE 2048 1504 2048 1488
WIRE 1760 1584 1760 1568
WIRE 2048 1600 2048 1584
FLAG 1760 1584 0
FLAG 1472 1328 0
FLAG 1984 1296 0
FLAG 2048 1600 0
FLAG 1472 1184 IN
SYMBOL ind 1712 1200 R270
WINDOW 0 32 56 VTop 0
WINDOW 3 5 56 VBottom 0
SYMATTR InstName L1
SYMATTR Value 6µ
SYMBOL VOLTAGE 1472 1200 R0
SYMATTR InstName V1
SYMATTR Value 3
SYMBOL schottky 1872 1200 R270
WINDOW 0 32 32 VTop 0
WINDOW 3 0 32 VBottom 0
SYMATTR InstName D5
SYMATTR Value MBR0540
SYMBOL cap 1968 1216 R0
SYMATTR InstName C1
SYMATTR Value 1µ
SYMBOL PowerProducts\\LT1937 1760 1424 R0
SYMATTR InstName U1
SYMBOL res 2032 1488 R0
SYMATTR InstName R1
SYMATTR Value 6.3
SYMBOL LED 2032 1200 R0
WINDOW 0 24 5 Left 0
WINDOW 3 25 66 Left 0
SYMATTR InstName D1
SYMATTR Value NSPW500BS
SYMATTR Description Diode
SYMATTR Type diode
SYMBOL LED 2032 1296 R0
WINDOW 0 24 5 Left 0
WINDOW 3 25 66 Left 0
SYMATTR InstName D2
SYMATTR Value NSPW500BS
SYMATTR Description Diode
SYMATTR Type diode
SYMBOL LED 2032 1392 R0
WINDOW 0 24 5 Left 0
WINDOW 3 25 66 Left 0
SYMATTR InstName D3
SYMATTR Value NSPW500BS
SYMATTR Description Diode
SYMATTR Type diode
TEXT 1816 1600 Left 0 !.tran 500u startup
