Version 4
SHEET 1 2688 1672
WIRE 1488 1168 1376 1168
WIRE 1568 1168 1488 1168
WIRE 1680 1168 1568 1168
WIRE 1696 1168 1680 1168
WIRE 1808 1168 1776 1168
WIRE 1888 1168 1808 1168
WIRE 2032 1168 1952 1168
WIRE 2160 1168 2032 1168
WIRE 2272 1168 2160 1168
WIRE 1376 1184 1376 1168
WIRE 2160 1184 2160 1168
WIRE 2272 1184 2272 1168
WIRE 1488 1200 1488 1168
WIRE 2032 1200 2032 1168
WIRE 1680 1264 1680 1168
WIRE 1808 1264 1808 1168
WIRE 2160 1280 2160 1248
WIRE 2272 1280 2272 1264
WIRE 1376 1296 1376 1264
WIRE 1488 1296 1488 1264
WIRE 1568 1344 1568 1168
WIRE 1600 1344 1568 1344
WIRE 2032 1344 2032 1280
WIRE 2032 1344 1888 1344
WIRE 2032 1360 2032 1344
WIRE 1600 1408 1568 1408
WIRE 2032 1456 2032 1440
WIRE 1568 1472 1568 1408
WIRE 1600 1472 1568 1472
WIRE 1904 1472 1888 1472
WIRE 1984 1472 1968 1472
WIRE 1744 1568 1744 1552
FLAG 2032 1456 0
FLAG 1744 1568 0
FLAG 1984 1472 0
FLAG 2160 1280 0
FLAG 1376 1296 0
FLAG 2272 1280 0
FLAG 1488 1296 0
FLAG 2272 1168 OUT
FLAG 1376 1168 IN
SYMBOL ind 1680 1184 R270
WINDOW 0 32 56 VTop 0
WINDOW 3 5 56 VBottom 0
SYMATTR InstName L1
SYMATTR Value 5.4
SYMATTR SpiceLine Rser=.05
SYMBOL RES 2016 1184 R0
SYMATTR InstName R1
SYMATTR Value 28.7K
SYMBOL res 2016 1344 R0
SYMATTR InstName R2
SYMATTR Value 5.23K
SYMBOL cap 1904 1488 R270
WINDOW 0 32 32 VTop 0
WINDOW 3 0 32 VBottom 0
SYMATTR InstName C3
SYMATTR Value .005
SYMBOL schottky 1888 1152 M90
WINDOW 0 0 32 VBottom 0
WINDOW 3 32 32 VTop 0
SYMATTR InstName D1
SYMATTR Value MBRS340
SYMBOL cap 2144 1184 R0
SYMATTR InstName C2
SYMATTR Value 20
SYMATTR SpiceLine Rser=50m
SYMBOL VOLTAGE 1376 1168 R0
SYMATTR InstName V1
SYMATTR Value 3.3
SYMBOL cap 1472 1200 R0
SYMATTR InstName C1
SYMATTR Value 2.2
SYMBOL PowerProducts\\LT1946A 1744 1408 R0
SYMATTR InstName U1
SYMBOL RES 2256 1168 R0
SYMATTR InstName Rload
SYMATTR Value 20
TEXT 2112 1352 Left 0 !.tran 750u startup
