Version 4
SHEET 1 880 680
WIRE 352 32 320 32
WIRE 416 32 352 32
WIRE 512 32 416 32
WIRE 0 48 -208 48
WIRE 32 48 0 48
WIRE 512 48 512 32
WIRE -208 64 -208 48
WIRE 416 64 416 32
WIRE 352 96 352 32
WIRE 352 96 320 96
WIRE 0 144 0 48
WIRE 32 144 0 144
WIRE 416 144 416 128
WIRE 512 144 512 128
WIRE -208 160 -208 144
WIRE 352 160 320 160
WIRE 176 240 176 208
FLAG -208 160 0
FLAG 416 144 0
FLAG 512 144 0
FLAG 176 240 0
FLAG -208 48 IN
FLAG 512 32 OUT
SYMBOL voltage -208 48 R0
SYMATTR InstName V1
SYMATTR Value PWL(0 0 1 10)
SYMBOL cap 400 64 R0
SYMATTR InstName C1
SYMATTR Value 1µ
SYMBOL res 496 32 R0
SYMATTR InstName Rload
SYMATTR Value 1K
SYMBOL PowerProducts\\LT1962-3 176 96 R0
SYMATTR InstName U1
TEXT 400 200 Left 0 !.tran 1
