Version 4
SHEET 1 880 680
WIRE 0 48 -208 48
WIRE 32 48 0 48
WIRE 352 48 320 48
WIRE 416 48 352 48
WIRE 560 48 416 48
WIRE -208 64 -208 48
WIRE 560 64 560 48
WIRE 416 80 416 48
WIRE 0 144 0 48
WIRE 32 144 0 144
WIRE 352 144 352 48
WIRE 352 144 320 144
WIRE -208 160 -208 144
WIRE 416 160 416 144
WIRE 560 160 560 144
WIRE 176 240 176 208
FLAG -208 160 0
FLAG 416 160 0
FLAG 560 160 0
FLAG 176 240 0
FLAG 560 48 OUT
FLAG -208 48 IN
SYMBOL voltage -208 48 R0
SYMATTR InstName V1
SYMATTR Value PWL(0 0 1 10)
SYMBOL res 544 48 R0
SYMATTR InstName Rload
SYMATTR Value 1K
SYMBOL PowerProducts\\LT1963-2.5 176 96 R0
SYMATTR InstName U1
SYMBOL cap 400 80 R0
WINDOW 3 40 33 Left 0
WINDOW 39 24 59 Left 0
SYMATTR Value 10µ
SYMATTR SpiceLine Rser=50m
SYMATTR InstName C1
TEXT 368 208 Left 0 !.tran 1
