Version 4
SHEET 1 880 680
WIRE 0 160 -176 160
WIRE 16 160 0 160
WIRE 352 160 304 160
WIRE 432 160 352 160
WIRE 528 160 432 160
WIRE 432 176 432 160
WIRE 528 176 528 160
WIRE -176 192 -176 160
WIRE 0 256 0 160
WIRE 16 256 0 256
WIRE 352 256 352 160
WIRE 352 256 304 256
WIRE 432 272 432 240
WIRE 528 272 528 256
WIRE -176 288 -176 272
WIRE 160 336 160 320
FLAG 160 336 0
FLAG 432 272 0
FLAG 528 272 0
FLAG -176 288 0
FLAG 528 160 OUT
SYMBOL voltage -176 176 R0
SYMATTR InstName V1
SYMATTR Value PWL(0 0 1 10)
SYMBOL res 512 160 R0
SYMATTR InstName Rload
SYMATTR Value 100
SYMBOL cap 416 176 R0
SYMATTR InstName C1
SYMATTR Value 10µ
SYMBOL PowerProducts\\LT3021-1.2 160 192 R0
SYMATTR InstName U1
TEXT 440 336 Left 0 !.tran 1
