Version 4
SHEET 1 880 680
WIRE 176 80 -176 80
WIRE -176 96 -176 80
WIRE 176 112 176 80
WIRE -176 192 -176 176
WIRE 112 352 112 336
WIRE 256 352 256 336
WIRE 112 448 112 432
WIRE 192 448 112 448
WIRE 256 448 256 432
WIRE 256 448 192 448
WIRE 192 464 192 448
WIRE 192 560 192 544
FLAG 192 560 0
FLAG -176 192 0
SYMBOL res 240 336 R0
SYMATTR InstName R1
SYMATTR Value 5
SYMBOL PowerProducts\\LT3092 176 224 R0
SYMATTR InstName U1
SYMBOL res 96 336 R0
SYMATTR InstName R2
SYMATTR Value 20K
SYMBOL voltage -176 80 R0
WINDOW 123 0 0 Left 0
WINDOW 39 0 0 Left 0
SYMATTR InstName V1
SYMATTR Value PWL(0 0 1 40)
SYMBOL res 176 448 R0
SYMATTR InstName Rload
SYMATTR Value 10
TEXT 376 432 Left 0 !.tran 1
