Version 4
SHEET 1 880 788
WIRE -144 112 -240 112
WIRE -48 112 -144 112
WIRE 16 112 -48 112
WIRE 464 112 304 112
WIRE 560 112 464 112
WIRE 640 112 560 112
WIRE 560 128 560 112
WIRE 640 128 640 112
WIRE -240 144 -240 112
WIRE -144 144 -144 112
WIRE -48 176 -48 112
WIRE 16 176 -48 176
WIRE 352 176 304 176
WIRE 464 192 464 112
WIRE 560 224 560 192
WIRE 640 224 640 208
WIRE -144 240 -144 224
WIRE 16 240 -144 240
WIRE 352 240 304 240
WIRE -240 256 -240 224
WIRE -144 256 -144 240
WIRE 464 288 464 272
WIRE 464 288 416 288
WIRE 16 304 -48 304
WIRE 352 304 304 304
WIRE 464 304 464 288
WIRE -144 352 -144 336
WIRE 16 368 -16 368
WIRE 352 368 304 368
WIRE 464 400 464 384
WIRE -48 416 -48 304
WIRE 416 416 416 288
WIRE 416 416 -48 416
FLAG -240 256 0
FLAG -16 368 0
FLAG 560 224 0
FLAG 640 224 0
FLAG -144 352 0
FLAG 464 400 0
FLAG 640 112 OUT
FLAG -240 112 IN
SYMBOL voltage -240 128 R0
SYMATTR InstName V1
SYMATTR Value 3.6
SYMBOL cap 336 176 R0
WINDOW 0 26 12 Left 0
WINDOW 3 28 50 Left 0
SYMATTR InstName C1
SYMATTR Value 2.2µ
SYMBOL cap 544 128 R0
WINDOW 0 31 18 Left 0
WINDOW 3 28 50 Left 0
SYMATTR InstName C2
SYMATTR Value 10µ
SYMBOL res -160 240 R0
SYMATTR InstName R1
SYMATTR Value 100K
SYMBOL res -160 128 R0
SYMATTR InstName R2
SYMATTR Value 400K
SYMBOL PowerProducts\\LTC3203B 160 240 R0
SYMATTR InstName U1
SYMBOL res 448 288 R0
SYMATTR InstName R3
SYMATTR Value 100K
SYMBOL res 448 176 R0
SYMATTR InstName R4
SYMATTR Value 350K
SYMBOL cap 336 304 R0
WINDOW 0 26 12 Left 0
WINDOW 3 28 50 Left 0
SYMATTR InstName C3
SYMATTR Value 2.2µ
SYMBOL res 624 112 R0
SYMATTR InstName Rload
SYMATTR Value 20
TEXT 552 320 Left 0 !.tran 1m startup
