Version 4
SHEET 1 880 680
WIRE 80 96 0 96
WIRE 96 96 80 96
WIRE 464 96 352 96
WIRE 544 96 464 96
WIRE 0 112 0 96
WIRE 464 112 464 96
WIRE 544 112 544 96
WIRE 80 192 80 96
WIRE 96 192 80 192
WIRE 400 192 352 192
WIRE 0 208 0 192
WIRE 400 208 400 192
WIRE 464 208 464 176
WIRE 544 208 544 192
WIRE 96 288 80 288
WIRE 400 288 400 272
WIRE 400 288 352 288
FLAG 0 208 0
FLAG 544 208 0
FLAG 464 208 0
FLAG 544 96 OUT
FLAG 0 96 IN
FLAG 80 288 0
SYMBOL cap 384 208 R0
SYMATTR InstName C1
SYMATTR Value 1µ
SYMBOL voltage 0 96 R0
SYMATTR InstName V1
SYMATTR Value 2.5
SYMBOL cap 448 112 R0
SYMATTR InstName C2
SYMATTR Value 4.7µ
SYMBOL res 528 96 R0
SYMATTR InstName Rload
SYMATTR Value 55
SYMBOL PowerProducts\\LTC3221-3.3 224 192 R0
SYMATTR InstName U1
TEXT 424 320 Left 0 !.tran 1m startup
