Version 4
SHEET 1 880 680
WIRE 176 80 144 80
WIRE 272 80 240 80
WIRE 144 160 144 80
WIRE 272 160 272 80
WIRE 32 224 -48 224
WIRE 80 224 32 224
WIRE 432 224 336 224
WIRE 512 224 432 224
WIRE -48 240 -48 224
WIRE 512 240 512 224
WIRE 432 256 432 224
WIRE 432 336 432 320
WIRE 512 336 512 320
WIRE -48 352 -48 320
WIRE 32 352 32 224
WIRE 80 352 32 352
WIRE 352 352 336 352
FLAG 352 352 0
FLAG -48 352 0
FLAG 432 336 0
FLAG 512 336 0
FLAG 512 224 OUT
FLAG -48 224 IN
SYMBOL cap 240 64 R90
WINDOW 0 0 32 VBottom 0
WINDOW 3 32 32 VTop 0
SYMATTR InstName C1
SYMATTR Value 1µ
SYMBOL cap 416 320 M180
WINDOW 0 24 64 Left 0
WINDOW 3 24 8 Left 0
SYMATTR InstName C2
SYMATTR Value 2.7µ
SYMBOL voltage -48 224 R0
SYMATTR InstName V1
SYMATTR Value 5
SYMBOL res 496 224 R0
SYMATTR InstName Rload
SYMATTR Value 10
SYMBOL PowerProducts\\LTC3250-1.5 208 272 R0
SYMATTR InstName U1
TEXT 120 400 Left 0 !.tran 200u startup
