Version 4
SHEET 1 1048 724
WIRE 80 48 -32 48
WIRE 192 48 80 48
WIRE 352 48 192 48
WIRE -32 64 -32 48
WIRE 80 80 80 48
WIRE 352 80 352 48
WIRE 192 144 192 48
WIRE 208 144 192 144
WIRE 512 144 496 144
WIRE 624 144 592 144
WIRE 688 144 624 144
WIRE -32 160 -32 144
WIRE 80 160 80 144
WIRE 688 160 688 144
WIRE 688 256 688 240
WIRE 208 304 192 304
WIRE 624 304 624 144
WIRE 624 304 496 304
WIRE 624 320 624 304
WIRE 352 400 352 368
WIRE 624 400 624 384
FLAG -32 160 0
FLAG 352 400 0
FLAG 624 400 0
FLAG 688 256 0
FLAG 80 160 0
FLAG 688 144 OUT
FLAG 192 304 0
FLAG -32 48 IN
SYMBOL VOLTAGE -32 48 R0
SYMATTR InstName V1
SYMATTR Value 5
SYMBOL polcap 608 320 R0
SYMATTR InstName C1
SYMATTR Value 22µ
SYMBOL ind 496 160 R270
WINDOW 0 32 56 VTop 0
WINDOW 3 5 56 VBottom 0
SYMATTR InstName L1
SYMATTR Value 4.7µ
SYMBOL res 672 144 R0
SYMATTR InstName Rload
SYMATTR Value 10
SYMBOL polcap 64 80 R0
SYMATTR InstName C2
SYMATTR Value 22µ
SYMBOL PowerProducts\\LTC3405A-1.8 352 224 R0
SYMATTR InstName U1
TEXT 704 352 Left 0 !.tran 500u startup
