Version 4
SHEET 1 988 700
WIRE 80 48 -32 48
WIRE 192 48 80 48
WIRE 352 48 192 48
WIRE -32 64 -32 48
WIRE 80 80 80 48
WIRE 352 80 352 48
WIRE 192 144 192 48
WIRE 208 144 192 144
WIRE 512 144 496 144
WIRE 640 144 592 144
WIRE 752 144 640 144
WIRE 864 144 752 144
WIRE -32 160 -32 144
WIRE 80 160 80 144
WIRE 752 160 752 144
WIRE 864 160 864 144
WIRE 640 176 640 144
WIRE 752 256 752 224
WIRE 864 256 864 240
WIRE 640 304 640 256
WIRE 640 304 496 304
WIRE 640 320 640 304
WIRE 352 384 352 368
WIRE 640 416 640 400
FLAG -32 160 0
FLAG 352 384 0
FLAG 752 256 0
FLAG 864 256 0
FLAG 80 160 0
FLAG -32 48 IN
FLAG 864 144 OUT
FLAG 640 416 0
SYMBOL VOLTAGE -32 48 R0
SYMATTR InstName V1
SYMATTR Value 5
SYMBOL polcap 736 160 R0
SYMATTR InstName C2
SYMATTR Value 10µ
SYMBOL ind 496 160 R270
WINDOW 0 32 56 VTop 0
WINDOW 3 5 56 VBottom 0
SYMATTR InstName L1
SYMATTR Value 2.2µ
SYMBOL RES 848 144 R0
SYMATTR InstName Rload
SYMATTR Value 5
SYMBOL polcap 64 80 R0
SYMATTR InstName C4
SYMATTR Value 22µ
SYMBOL res 624 160 R0
SYMATTR InstName R1
SYMATTR Value 887K
SYMBOL res 624 304 R0
SYMATTR InstName R2
SYMATTR Value 280K
SYMBOL PowerProducts\\LTC3406B-2 352 224 R0
SYMATTR InstName U1
TEXT 744 320 Left 0 !.tran 500u startup
