Version 4
SHEET 1 984 700
WIRE 96 48 16 48
WIRE 176 48 96 48
WIRE 352 48 176 48
WIRE 352 80 352 48
WIRE 16 96 16 48
WIRE 96 112 96 48
WIRE 176 144 176 48
WIRE 208 144 176 144
WIRE 512 144 496 144
WIRE 624 144 592 144
WIRE 672 144 624 144
WIRE 768 144 672 144
WIRE 768 160 768 144
WIRE 672 176 672 144
WIRE 16 224 16 176
WIRE 96 224 96 176
WIRE 672 256 672 240
WIRE 768 256 768 240
WIRE 624 304 624 144
WIRE 624 304 496 304
WIRE 352 384 352 368
FLAG 16 224 0
FLAG 352 384 0
FLAG 672 256 0
FLAG 768 256 0
FLAG 96 224 0
FLAG 768 144 OUT
FLAG 16 48 IN
SYMBOL VOLTAGE 16 80 R0
SYMATTR InstName V1
SYMATTR Value 5
SYMBOL polcap 656 176 R0
SYMATTR InstName C1
SYMATTR Value 22µ
SYMBOL ind 496 160 R270
WINDOW 0 32 56 VTop 0
WINDOW 3 5 56 VBottom 0
SYMATTR InstName L1
SYMATTR Value 4.7µ
SYMBOL RES 752 144 R0
SYMATTR InstName Rload
SYMATTR Value 5
SYMBOL polcap 80 112 R0
SYMATTR InstName C2
SYMATTR Value 22µ
SYMBOL PowerProducts\\LTC3406-1.2 352 224 R0
SYMATTR InstName U1
TEXT 552 352 Left 0 !.tran 500u startup
