Version 4
SHEET 1 1064 700
WIRE 96 48 16 48
WIRE 176 48 96 48
WIRE 352 48 176 48
WIRE 352 80 352 48
WIRE 16 96 16 48
WIRE 96 112 96 48
WIRE 176 144 176 48
WIRE 208 144 176 144
WIRE 512 144 496 144
WIRE 624 144 592 144
WIRE 720 144 624 144
WIRE 816 144 720 144
WIRE 928 144 816 144
WIRE 816 160 816 144
WIRE 928 160 928 144
WIRE 624 176 624 144
WIRE 720 176 720 144
WIRE 16 224 16 176
WIRE 96 224 96 176
WIRE 816 256 816 224
WIRE 928 256 928 240
WIRE 624 304 624 256
WIRE 624 304 496 304
WIRE 720 304 720 240
WIRE 720 304 624 304
WIRE 624 320 624 304
WIRE 352 384 352 368
WIRE 624 416 624 400
FLAG 16 224 0
FLAG 352 384 0
FLAG 816 256 0
FLAG 928 256 0
FLAG 96 224 0
FLAG 928 144 OUT
FLAG 624 416 0
FLAG 16 48 IN
SYMBOL VOLTAGE 16 80 R0
SYMATTR InstName V1
SYMATTR Value 3.5
SYMBOL polcap 800 160 R0
SYMATTR InstName C2
SYMATTR Value 10µ
SYMBOL ind 496 160 R270
WINDOW 0 32 56 VTop 0
WINDOW 3 5 56 VBottom 0
SYMATTR InstName L1
SYMATTR Value 2.2µ
SYMBOL RES 912 144 R0
SYMATTR InstName R3
SYMATTR Value 10
SYMBOL polcap 80 112 R0
SYMATTR InstName C4
SYMATTR Value 22µ
SYMBOL res 608 160 R0
SYMATTR InstName R1
SYMATTR Value 619K
SYMBOL res 608 304 R0
SYMATTR InstName R2
SYMATTR Value 309K
SYMBOL cap 704 176 R0
SYMATTR InstName C1
SYMATTR Value 22p
SYMBOL PowerProducts\\LTC3406AB 352 224 R0
SYMATTR InstName U1
TEXT 744 392 Left 0 !.tran 1.25m startup
