Version 4
SHEET 1 1060 708
WIRE 80 32 -32 32
WIRE 176 32 80 32
WIRE 272 32 176 32
WIRE 352 32 272 32
WIRE 432 32 352 32
WIRE -32 48 -32 32
WIRE 80 64 80 32
WIRE 272 64 272 32
WIRE 352 64 352 32
WIRE 432 64 432 32
WIRE 176 128 176 32
WIRE 208 128 176 128
WIRE -32 144 -32 128
WIRE 80 144 80 128
WIRE -96 224 -208 224
WIRE -32 224 -96 224
WIRE 48 224 -32 224
WIRE 96 224 48 224
WIRE 208 224 176 224
WIRE 512 224 496 224
WIRE 624 224 592 224
WIRE 736 224 624 224
WIRE 816 224 736 224
WIRE 912 224 816 224
WIRE -208 240 -208 224
WIRE -32 240 -32 224
WIRE 48 240 48 224
WIRE 624 240 624 224
WIRE 736 240 736 224
WIRE 912 240 912 224
WIRE -96 256 -96 224
WIRE 816 256 816 224
WIRE -208 336 -208 320
WIRE -96 336 -96 320
WIRE -32 336 -32 304
WIRE 48 336 48 320
WIRE 48 336 -32 336
WIRE 208 336 48 336
WIRE 624 336 624 320
WIRE 624 336 496 336
WIRE 736 336 736 304
WIRE 736 336 624 336
WIRE 816 336 816 320
WIRE 912 336 912 320
WIRE 48 352 48 336
WIRE 624 352 624 336
WIRE 352 400 352 384
WIRE 48 448 48 432
WIRE 624 448 624 432
FLAG -32 144 0
FLAG 352 400 0
FLAG 816 336 0
FLAG 912 336 0
FLAG 80 144 0
FLAG 912 224 OUT1
FLAG 624 448 0
FLAG -96 336 0
FLAG -208 336 0
FLAG -208 224 OUT2
FLAG 48 448 0
FLAG -32 32 IN
SYMBOL VOLTAGE -32 32 R0
SYMATTR InstName V1
SYMATTR Value 5
SYMBOL polcap 800 256 R0
SYMATTR InstName C1
SYMATTR Value 10
SYMBOL ind 496 240 R270
WINDOW 0 32 56 VTop 2
WINDOW 3 5 56 VBottom 2
SYMATTR InstName L1
SYMATTR Value 2.2
SYMBOL polcap 64 64 R0
SYMATTR InstName C2
SYMATTR Value 22
SYMBOL res 608 336 R0
SYMATTR InstName R1
SYMATTR Value 443.5K
SYMBOL res 608 224 R0
SYMATTR InstName R2
SYMATTR Value 887K
SYMBOL polcap -112 256 R0
SYMATTR InstName C3
SYMATTR Value 10
SYMBOL ind 192 240 M270
WINDOW 0 32 56 VTop 2
WINDOW 3 5 56 VBottom 2
SYMATTR InstName L2
SYMATTR Value 2.2
SYMBOL res 32 336 R0
SYMATTR InstName R3
SYMATTR Value 280K
SYMBOL res 32 224 R0
SYMATTR InstName R4
SYMATTR Value 887K
SYMBOL cap -48 240 R0
SYMATTR InstName C4
SYMATTR Value 22p
SYMBOL cap 720 240 R0
SYMATTR InstName C5
SYMATTR Value 22p
SYMBOL res 896 224 R0
SYMATTR InstName Rload1
SYMATTR Value 100
SYMBOL res -224 224 R0
SYMATTR InstName Rload2
SYMATTR Value 100
SYMBOL PowerProducts\\LTC3407A 352 224 R0
SYMATTR InstName U1
TEXT 256 456 Left 2 !.tran 250u startup
