Version 4
SHEET 1 1028 700
WIRE 160 48 80 48
WIRE 352 48 160 48
WIRE 80 80 80 48
WIRE 352 80 352 48
WIRE 160 144 160 48
WIRE 208 144 160 144
WIRE 512 144 496 144
WIRE 608 144 592 144
WIRE 656 144 608 144
WIRE 752 144 656 144
WIRE 656 160 656 144
WIRE 752 160 752 144
WIRE 80 192 80 160
WIRE 656 256 656 224
WIRE 752 256 752 240
WIRE 608 304 608 144
WIRE 608 304 496 304
WIRE 352 384 352 368
FLAG 80 192 0
FLAG 352 384 0
FLAG 656 256 0
FLAG 752 256 0
FLAG 80 48 IN
FLAG 752 144 OUT
SYMBOL VOLTAGE 80 64 R0
SYMATTR InstName V1
SYMATTR Value 5
SYMBOL ind 496 160 R270
WINDOW 0 32 56 VTop 0
WINDOW 3 5 56 VBottom 0
SYMATTR InstName L1
SYMATTR Value 4.7µ
SYMBOL RES 736 144 R0
SYMATTR InstName Rload
SYMATTR Value 20
SYMBOL cap 640 160 R0
SYMATTR InstName C1
SYMATTR Value 4.7µ
SYMBOL PowerProducts\\LTC3410B-1.2 352 224 R0
SYMATTR InstName U1
TEXT 560 360 Left 0 !.tran 250u startup
