Version 4
SHEET 1 1028 700
WIRE 160 48 80 48
WIRE 352 48 160 48
WIRE 80 80 80 48
WIRE 352 80 352 48
WIRE 160 144 160 48
WIRE 208 144 160 144
WIRE 512 144 496 144
WIRE 624 144 592 144
WIRE 672 144 624 144
WIRE 768 144 672 144
WIRE 672 160 672 144
WIRE 768 160 768 144
WIRE 80 192 80 160
WIRE 672 256 672 224
WIRE 768 256 768 240
WIRE 624 304 624 144
WIRE 624 304 496 304
WIRE 352 384 352 368
FLAG 80 192 0
FLAG 352 384 0
FLAG 672 256 0
FLAG 768 256 0
FLAG 768 144 OUT
FLAG 80 48 IN
SYMBOL VOLTAGE 80 64 R0
SYMATTR InstName V1
SYMATTR Value 5
SYMBOL ind 496 160 R270
WINDOW 0 32 56 VTop 0
WINDOW 3 5 56 VBottom 0
SYMATTR InstName L1
SYMATTR Value 4.7µ
SYMBOL RES 752 144 R0
SYMATTR InstName Rload
SYMATTR Value 10
SYMBOL cap 656 160 R0
SYMATTR InstName C2
SYMATTR Value 4.7µ
SYMBOL PowerProducts\\LTC3410-1.875 352 224 R0
SYMATTR InstName U1
TEXT 536 352 Left 0 !.tran 250u startup
