Version 4
SHEET 1 1208 836
WIRE 16 192 -176 192
WIRE 112 192 16 192
WIRE 272 192 112 192
WIRE 368 192 272 192
WIRE 1008 192 368 192
WIRE -176 208 -176 192
WIRE 112 208 112 192
WIRE 272 208 272 192
WIRE 1008 256 1008 192
WIRE 16 272 16 192
WIRE 32 272 16 272
WIRE 368 272 368 192
WIRE 368 272 352 272
WIRE -176 304 -176 288
WIRE -112 336 -416 336
WIRE 32 336 -32 336
WIRE 512 336 352 336
WIRE 768 336 592 336
WIRE -416 400 -416 336
WIRE -416 400 -544 400
WIRE -336 400 -416 400
WIRE -224 400 -272 400
WIRE 32 400 -224 400
WIRE 560 400 352 400
WIRE 656 400 560 400
WIRE 768 400 768 336
WIRE 768 400 720 400
WIRE 864 400 768 400
WIRE -544 416 -544 400
WIRE -416 416 -416 400
WIRE -224 416 -224 400
WIRE 560 416 560 400
WIRE 768 416 768 400
WIRE 864 416 864 400
WIRE -96 464 -112 464
WIRE 32 464 -32 464
WIRE 432 464 352 464
WIRE 512 464 496 464
WIRE -544 512 -544 496
WIRE -416 512 -416 480
WIRE -224 512 -224 496
WIRE 560 512 560 496
WIRE 768 512 768 480
WIRE 864 512 864 496
WIRE 32 528 16 528
WIRE 368 528 352 528
WIRE 32 592 16 592
WIRE 1008 592 1008 336
WIRE 1008 592 352 592
WIRE 96 672 96 656
WIRE 192 672 192 656
WIRE 288 672 288 656
FLAG 96 672 0
FLAG 192 672 0
FLAG 288 672 0
FLAG -224 512 0
FLAG -416 512 0
FLAG -112 464 0
FLAG -176 304 0
FLAG 560 512 0
FLAG 768 512 0
FLAG 512 464 0
FLAG 16 528 0
FLAG 368 528 0
FLAG -544 512 0
FLAG 864 512 0
FLAG 16 592 0
FLAG -176 192 IN
FLAG -544 400 OUT1
FLAG 864 400 OUT2
SYMBOL PowerProducts\\LTC3417 192 432 R0
SYMATTR InstName U1
SYMBOL ind -16 352 M270
WINDOW 0 32 56 VTop 0
WINDOW 3 5 56 VBottom 0
SYMATTR InstName L1
SYMATTR Value 1.5
SYMBOL res -240 400 R0
SYMATTR InstName R1
SYMATTR Value 412K
SYMBOL cap -432 416 R0
SYMATTR InstName C1
SYMATTR Value 22
SYMBOL cap -32 448 R90
WINDOW 0 0 32 VBottom 0
WINDOW 3 32 32 VTop 0
WINDOW 39 60 32 VTop 0
SYMATTR InstName C2
SYMATTR Value 2200p
SYMATTR SpiceLine Rser=5.9K
SYMBOL voltage -176 192 R0
SYMATTR InstName V1
SYMATTR Value 5
SYMBOL cap -272 384 R90
WINDOW 0 0 32 VBottom 0
WINDOW 3 32 32 VTop 0
WINDOW 39 60 32 VTop 0
SYMATTR InstName C3
SYMATTR Value 22p
SYMATTR SpiceLine Rpar=511K
SYMBOL ind 496 352 R270
WINDOW 0 32 56 VTop 0
WINDOW 3 5 56 VBottom 0
SYMATTR InstName L2
SYMATTR Value 1.5
SYMBOL res 544 400 R0
WINDOW 3 36 81 Left 0
SYMATTR Value 412K
SYMATTR InstName R2
SYMBOL cap 752 416 R0
SYMATTR InstName C4
SYMATTR Value 10
SYMBOL cap 656 384 M90
WINDOW 0 0 32 VBottom 0
WINDOW 3 32 32 VTop 0
WINDOW 39 60 32 VTop 0
SYMATTR InstName C5
SYMATTR Value 22p
SYMATTR SpiceLine Rpar=866K
SYMBOL cap 496 448 R90
WINDOW 0 0 32 VBottom 0
WINDOW 3 32 32 VTop 0
WINDOW 39 60 32 VTop 0
SYMATTR InstName C6
SYMATTR Value 6800p
SYMATTR SpiceLine Rser=2.87K
SYMBOL res 992 240 R0
WINDOW 3 36 81 Left 0
SYMATTR Value 50K
SYMATTR InstName R3
SYMBOL res -560 400 R0
SYMATTR InstName Rload1
SYMATTR Value 5
SYMBOL res 848 400 R0
SYMATTR InstName Rload2
SYMATTR Value 10
TEXT 440 640 Left 0 !.tran 200u startup
