Version 4
SHEET 1 880 680
WIRE 48 112 -48 112
WIRE 80 112 48 112
WIRE 192 112 160 112
WIRE -48 144 -48 112
WIRE 192 160 192 112
WIRE 48 208 48 112
WIRE 80 208 48 208
WIRE 352 208 304 208
WIRE 448 208 352 208
WIRE 528 208 448 208
WIRE 352 224 352 208
WIRE 448 224 448 208
WIRE 528 224 528 208
WIRE -48 240 -48 224
WIRE 48 320 48 208
WIRE 80 320 48 320
WIRE 352 320 352 304
WIRE 352 320 304 320
WIRE 448 320 448 288
WIRE 528 320 528 304
WIRE 352 336 352 320
WIRE 192 384 192 368
FLAG 192 384 0
FLAG 352 416 0
FLAG -48 240 0
FLAG 448 320 0
FLAG 528 320 0
FLAG 528 208 OUT
FLAG -48 112 IN
SYMBOL ind 64 128 R270
WINDOW 0 32 56 VTop 0
WINDOW 3 5 56 VBottom 0
SYMATTR InstName L1
SYMATTR Value 4.7µ
SYMBOL res 336 208 R0
SYMATTR InstName R1
SYMATTR Value 1Meg
SYMBOL res 336 320 R0
SYMATTR InstName R2
SYMATTR Value 604K
SYMBOL cap 432 224 R0
SYMATTR InstName C1
SYMATTR Value 4.7µ
SYMBOL voltage -48 128 R0
SYMATTR InstName V1
SYMATTR Value 2
SYMBOL res 512 208 R0
SYMATTR InstName Rload
SYMATTR Value 20
SYMBOL PowerProducts\\LTC3427-2 192 256 R0
SYMATTR InstName U1
TEXT 472 384 Left 0 !.tran 200u startup
