Version 4
SHEET 1 1376 984
WIRE 288 464 176 464
WIRE 384 464 288 464
WIRE 512 464 384 464
WIRE 560 464 512 464
WIRE 672 464 640 464
WIRE 720 464 672 464
WIRE 848 464 784 464
WIRE 960 464 848 464
WIRE 1056 464 960 464
WIRE 1168 464 1056 464
WIRE 176 480 176 464
WIRE 1168 480 1168 464
WIRE 288 496 288 464
WIRE 1056 496 1056 464
WIRE 848 528 848 464
WIRE 960 528 960 464
WIRE 512 560 512 464
WIRE 672 560 672 464
WIRE 176 576 176 560
WIRE 288 576 288 560
WIRE 1056 576 1056 560
WIRE 1168 576 1168 560
WIRE 384 624 384 464
WIRE 432 624 384 624
WIRE 848 672 848 608
WIRE 848 672 752 672
WIRE 960 672 960 592
WIRE 960 672 848 672
WIRE 848 688 848 672
WIRE 352 720 336 720
WIRE 432 720 416 720
WIRE 848 784 848 768
WIRE 592 800 592 784
FLAG 1168 464 OUT
FLAG 848 784 0
FLAG 1056 576 0
FLAG 1168 576 0
FLAG 592 800 0
FLAG 176 576 0
FLAG 288 576 0
FLAG 336 720 0
FLAG 176 464 IN
SYMBOL VOLTAGE 176 464 R0
SYMATTR InstName V1
SYMATTR Value 3
SYMBOL RES 832 512 R0
SYMATTR InstName R1
SYMATTR Value 402K
SYMBOL RES 832 672 R0
SYMATTR InstName R2
SYMATTR Value 133K
SYMBOL IND 544 480 R270
WINDOW 0 32 56 VTop 0
WINDOW 3 5 56 VBottom 0
SYMATTR InstName L1
SYMATTR Value 2.7
SYMATTR SpiceLine Rser=0.182
SYMBOL SCHOTTKY 720 480 R270
WINDOW 0 32 32 VTop 0
WINDOW 3 0 32 VBottom 0
SYMATTR InstName D1
SYMATTR Value MBR0520L
SYMBOL POLCAP 1040 496 R0
SYMATTR InstName C2
SYMATTR Value 15
SYMBOL POLCAP 272 496 R0
SYMATTR InstName C1
SYMATTR Value 2.2
SYMBOL cap 416 704 R90
WINDOW 0 0 32 VBottom 0
WINDOW 3 32 32 VTop 0
SYMATTR InstName C3
SYMATTR Value .0047
SYMBOL cap 944 528 R0
SYMATTR InstName C4
SYMATTR Value 3.3p
SYMBOL PowerProducts\\LT3467A 592 672 R0
SYMATTR InstName U1
SYMBOL RES 1152 464 R0
SYMATTR InstName Rload
SYMATTR Value 10
TEXT 1000 736 Left 0 !.tran 1m startup
