Version 4
SHEET 1 2808 1456
WIRE 1616 880 1520 880
WIRE 1648 880 1616 880
WIRE 1760 880 1728 880
WIRE 1792 880 1760 880
WIRE 1888 880 1856 880
WIRE 2016 880 1888 880
WIRE 2016 896 2016 880
WIRE 1520 912 1520 880
WIRE 1760 944 1760 880
WIRE 1888 944 1888 880
WIRE 2016 976 2016 960
WIRE 1616 1008 1616 880
WIRE 1680 1008 1616 1008
WIRE 2000 1008 1968 1008
WIRE 2112 1008 2000 1008
WIRE 2208 1008 2112 1008
WIRE 1520 1024 1520 992
WIRE 2112 1024 2112 1008
WIRE 2208 1024 2208 1008
WIRE 2000 1040 2000 1008
WIRE 1616 1088 1616 1008
WIRE 1680 1088 1616 1088
WIRE 2112 1120 2112 1088
WIRE 2208 1120 2208 1104
WIRE 1616 1168 1616 1088
WIRE 1680 1168 1616 1168
WIRE 2000 1168 2000 1120
WIRE 2000 1168 1968 1168
WIRE 1824 1248 1824 1232
FLAG 2208 1008 OUT
FLAG 1824 1248 0
FLAG 1520 1024 0
FLAG 1520 880 IN
FLAG 2016 976 0
FLAG 2112 1120 0
FLAG 2208 1120 0
SYMBOL RES 1984 1024 R0
SYMATTR InstName R1
SYMATTR Value 909K
SYMBOL VOLTAGE 1520 896 R0
SYMATTR InstName V1
SYMATTR Value 3.6
SYMATTR SpiceLine Rser=0.1
SYMBOL ind 1632 896 R270
WINDOW 0 32 56 VTop 0
WINDOW 3 5 56 VBottom 0
SYMATTR InstName L1
SYMATTR Value 10µ
SYMBOL cap 2000 896 R0
SYMATTR InstName C1
SYMATTR Value 2.2µ
SYMBOL cap 2096 1024 R0
SYMATTR InstName C2
SYMATTR Value 1µ
SYMBOL schottky 1792 896 R270
WINDOW 0 32 32 VTop 0
WINDOW 3 0 32 VBottom 0
SYMATTR InstName D1
SYMATTR Value 1N5817
SYMATTR Description Diode
SYMATTR Type diode
SYMBOL res 2192 1008 R0
SYMATTR InstName Rload
SYMATTR Value 230
SYMBOL PowerProducts\\LT3495B 1824 1088 R0
SYMATTR InstName U1
TEXT 2032 1208 Left 0 !.tran 500u startup
