Version 4
SHEET 1 880 680
WIRE 112 64 0 64
WIRE 320 64 192 64
WIRE 0 160 0 64
WIRE 0 160 -112 160
WIRE 32 160 0 160
WIRE 320 160 320 64
WIRE 320 160 288 160
WIRE -112 176 -112 160
WIRE -112 272 -112 256
WIRE 0 304 0 160
WIRE 32 304 0 304
WIRE 320 304 288 304
WIRE 416 304 320 304
WIRE 320 320 320 304
WIRE 416 320 416 304
WIRE 160 384 160 368
WIRE 320 416 320 384
WIRE 416 416 416 400
FLAG 320 416 0
FLAG 160 384 0
FLAG -112 272 0
FLAG 416 416 0
FLAG -112 160 IN
FLAG 416 304 OUT
SYMBOL ind 96 80 R270
WINDOW 0 32 56 VTop 0
WINDOW 3 5 56 VBottom 0
SYMATTR InstName L1
SYMATTR Value 10µ
SYMBOL cap 304 320 R0
SYMATTR InstName C1
SYMATTR Value 10µ
SYMBOL voltage -112 160 R0
SYMATTR InstName V1
SYMATTR Value 1
SYMBOL res 400 304 R0
SYMATTR InstName R1
SYMATTR Value 100
SYMBOL PowerProducts\\LTC3525-5 160 208 R0
SYMATTR InstName U1
TEXT 112 424 Left 0 !.tran 2m startup
