Version 4
SHEET 1 880 680
WIRE -48 64 -144 64
WIRE 0 64 -48 64
WIRE 128 64 80 64
WIRE -144 96 -144 64
WIRE 128 112 128 64
WIRE -48 176 -48 64
WIRE -16 176 -48 176
WIRE 320 176 272 176
WIRE 464 176 320 176
WIRE 576 176 464 176
WIRE -144 208 -144 176
WIRE 320 208 320 176
WIRE 464 208 464 176
WIRE 576 208 576 176
WIRE 464 304 464 272
WIRE 576 304 576 288
WIRE -48 336 -48 176
WIRE -16 336 -48 336
WIRE 320 336 320 288
WIRE 320 336 272 336
WIRE 320 352 320 336
WIRE 128 416 128 400
WIRE 320 448 320 432
FLAG -144 208 0
FLAG 128 416 0
FLAG 320 448 0
FLAG 464 304 0
FLAG 576 304 0
FLAG -144 64 IN
FLAG 576 176 OUT
SYMBOL ind -16 80 R270
WINDOW 0 32 56 VTop 0
WINDOW 3 5 56 VBottom 0
SYMATTR InstName L1
SYMATTR Value 2.2µ
SYMATTR SpiceLine Rpar=5K
SYMBOL voltage -144 80 R0
SYMATTR InstName V1
SYMATTR Value 1.2
SYMBOL res 304 192 R0
SYMATTR InstName R1
SYMATTR Value 1.4Meg
SYMBOL res 304 336 R0
SYMATTR InstName R2
SYMATTR Value 1Meg
SYMBOL cap 448 208 R0
SYMATTR InstName C1
SYMATTR Value 4.7µ
SYMATTR SpiceLine Rser=1m
SYMBOL res 560 192 R0
SYMATTR InstName Rload
SYMATTR Value 28.5
SYMBOL PowerProducts\\LTC3526LB-2 128 256 R0
SYMATTR InstName U1
TEXT 432 440 Left 0 !.tran 500u startup
