Version 4
SHEET 1 924 680
WIRE 96 -48 0 -48
WIRE 256 -48 96 -48
WIRE 416 -48 256 -48
WIRE 0 -32 0 -48
WIRE 256 -32 256 -48
WIRE 96 32 96 -48
WIRE 112 32 96 32
WIRE 416 32 416 -48
WIRE 416 32 400 32
WIRE 0 64 0 48
WIRE 112 144 96 144
WIRE 416 144 400 144
WIRE 512 144 496 144
WIRE 576 144 512 144
WIRE 656 144 576 144
WIRE 576 160 576 144
WIRE 656 160 656 144
WIRE 0 256 -128 256
WIRE 112 256 0 256
WIRE 512 256 512 144
WIRE 512 256 400 256
WIRE 576 256 576 224
WIRE 656 256 656 240
WIRE -128 272 -128 256
WIRE 0 272 0 256
WIRE -128 368 -128 352
WIRE 0 368 0 336
WIRE 112 368 96 368
WIRE 512 368 512 256
WIRE 512 368 400 368
FLAG 96 368 0
FLAG 0 64 0
FLAG 0 -48 IN
FLAG 96 144 0
FLAG 656 256 0
FLAG 576 256 0
FLAG 656 144 OUT1
FLAG -128 368 0
FLAG 0 368 0
FLAG -128 256 OUT2
SYMBOL voltage 0 -48 R0
SYMATTR InstName V1
SYMATTR Value 3.6
SYMBOL ind 400 160 R270
WINDOW 0 32 56 VTop 0
WINDOW 3 5 56 VBottom 0
SYMATTR InstName L1
SYMATTR Value 2.2µ
SYMBOL cap 560 160 R0
SYMATTR InstName C1
SYMATTR Value 10µ
SYMBOL cap -16 272 R0
SYMATTR InstName C2
SYMATTR Value 2.2µ
SYMBOL PowerProducts\\LTC3541-2 256 192 R0
SYMATTR InstName U1
SYMBOL res 640 144 R0
SYMATTR InstName Rload1
SYMATTR Value 9.375
SYMBOL res -144 256 R0
SYMATTR InstName Rload2
SYMATTR Value 5
TEXT 560 344 Left 0 !.tran 1m startup
