Version 4
SHEET 1 1060 700
WIRE 272 48 -304 48
WIRE 352 48 272 48
WIRE 432 48 352 48
WIRE -304 80 -304 48
WIRE 272 80 272 48
WIRE 352 80 352 48
WIRE 432 80 432 48
WIRE -64 144 -192 144
WIRE 0 144 -64 144
WIRE 80 144 0 144
WIRE 208 144 160 144
WIRE 576 144 496 144
WIRE 672 144 656 144
WIRE 736 144 672 144
WIRE 832 144 736 144
WIRE -192 160 -192 144
WIRE -64 160 -64 144
WIRE 832 160 832 144
WIRE 736 176 736 144
WIRE -304 192 -304 160
WIRE 0 208 0 144
WIRE 16 208 0 208
WIRE 144 208 80 208
WIRE 544 208 528 208
WIRE 672 208 672 144
WIRE 672 208 608 208
WIRE -192 256 -192 240
WIRE -64 256 -64 224
WIRE 736 256 736 240
WIRE 832 256 832 240
WIRE 0 288 0 208
WIRE 48 288 0 288
WIRE 144 288 144 208
WIRE 144 288 128 288
WIRE 208 288 144 288
WIRE 528 288 528 208
WIRE 528 288 496 288
WIRE 576 288 528 288
WIRE 672 288 672 208
WIRE 672 288 656 288
WIRE 144 304 144 288
WIRE 528 304 528 288
WIRE 352 368 352 336
WIRE 144 400 144 384
WIRE 528 400 528 384
FLAG -304 192 0
FLAG 352 368 0
FLAG -304 48 IN
FLAG -64 256 0
FLAG -192 256 0
FLAG 144 400 0
FLAG 736 256 0
FLAG 832 256 0
FLAG 528 400 0
FLAG 832 144 OUT1
FLAG -192 144 OUT2
SYMBOL VOLTAGE -304 64 R0
SYMATTR InstName V1
SYMATTR Value 3.6
SYMBOL ind 176 160 M270
WINDOW 0 32 56 VTop 0
WINDOW 3 5 56 VBottom 0
SYMATTR InstName L1
SYMATTR Value 4.7
SYMBOL res 32 272 M90
WINDOW 0 0 56 VBottom 0
WINDOW 3 32 56 VTop 0
SYMATTR InstName R1
SYMATTR Value 475K
SYMBOL res 128 288 R0
SYMATTR InstName R2
SYMATTR Value 237K
SYMBOL cap 16 192 M90
WINDOW 0 0 32 VBottom 0
WINDOW 3 32 32 VTop 0
SYMATTR InstName C1
SYMATTR Value 10p
SYMBOL ind 560 160 R270
WINDOW 0 32 56 VTop 0
WINDOW 3 5 56 VBottom 0
SYMATTR InstName L2
SYMATTR Value 4.7
SYMBOL res 672 272 R90
WINDOW 0 0 56 VBottom 0
WINDOW 3 32 56 VTop 0
SYMATTR InstName R3
SYMATTR Value 475K
SYMBOL res 512 288 R0
SYMATTR InstName R4
SYMATTR Value 150K
SYMBOL cap 608 192 R90
WINDOW 0 0 32 VBottom 0
WINDOW 3 32 32 VTop 0
SYMATTR InstName C2
SYMATTR Value 10p
SYMBOL PowerProducts\\ltc3547B 352 208 R0
SYMATTR InstName U1
SYMBOL res -208 144 R0
SYMATTR InstName Rload2
SYMATTR Value 1.8K
SYMBOL res 816 144 R0
SYMATTR InstName Rload1
SYMATTR Value 8.33
SYMBOL cap -80 160 R0
SYMATTR InstName C3
SYMATTR Value 4.7
SYMBOL cap 720 176 R0
SYMATTR InstName C4
SYMATTR Value 4.7
TEXT 696 368 Left 0 !.tran 800u startup
