Version 4
SHEET 1 1080 760
WIRE -32 -144 -144 -144
WIRE 32 -144 -32 -144
WIRE 128 -144 32 -144
WIRE 208 -144 128 -144
WIRE 288 -144 208 -144
WIRE -144 -128 -144 -144
WIRE 128 -112 128 -144
WIRE 208 -112 208 -144
WIRE 288 -112 288 -144
WIRE 32 -48 32 -144
WIRE 48 -48 32 -48
WIRE 432 -48 368 -48
WIRE 480 -48 432 -48
WIRE 592 -48 544 -48
WIRE -144 -32 -144 -48
WIRE 432 -32 432 -48
WIRE 32 48 32 -48
WIRE 48 48 32 48
WIRE 432 48 432 32
WIRE 432 48 368 48
WIRE 480 48 432 48
WIRE 592 48 592 -48
WIRE 592 48 560 48
WIRE 672 48 592 48
WIRE 704 48 672 48
WIRE 784 48 704 48
WIRE 432 64 432 48
WIRE 704 64 704 48
WIRE 784 64 784 48
WIRE 592 80 592 48
WIRE -32 144 -32 -144
WIRE 32 144 32 48
WIRE 48 144 32 144
WIRE 400 144 368 144
WIRE 432 144 432 128
WIRE 704 160 704 128
WIRE 784 160 784 144
WIRE 400 176 400 144
WIRE 592 176 592 160
WIRE 592 176 400 176
WIRE 592 192 592 176
WIRE -288 240 -400 240
WIRE -208 240 -288 240
WIRE -128 240 -208 240
WIRE -32 240 -32 224
WIRE -32 240 -64 240
WIRE 48 240 -32 240
WIRE 400 240 368 240
WIRE 480 240 464 240
WIRE -400 256 -400 240
WIRE -288 256 -288 240
WIRE -208 256 -208 240
WIRE 592 288 592 272
WIRE 48 336 -16 336
WIRE 400 336 368 336
WIRE 480 336 464 336
WIRE -400 352 -400 336
WIRE -288 352 -288 320
WIRE -208 352 -208 336
WIRE -16 352 -16 336
WIRE -16 352 -208 352
WIRE -208 368 -208 352
WIRE 672 384 672 48
WIRE -48 432 -64 432
WIRE 48 432 16 432
WIRE 608 432 368 432
WIRE -208 464 -208 448
WIRE 672 496 672 480
WIRE 784 496 672 496
WIRE 864 496 784 496
WIRE 672 512 672 496
WIRE 784 512 784 496
WIRE 864 512 864 496
WIRE -48 528 -64 528
WIRE 48 528 16 528
WIRE 544 528 368 528
WIRE 160 608 160 592
WIRE 256 608 256 592
WIRE 544 608 544 528
WIRE 672 608 672 592
WIRE 672 608 544 608
WIRE 784 608 784 576
WIRE 864 608 864 592
WIRE 672 624 672 608
WIRE 160 704 160 688
WIRE 672 720 672 704
FLAG -144 -32 0
FLAG -208 464 0
FLAG -400 352 0
FLAG -288 352 0
FLAG -64 432 0
FLAG -64 528 0
FLAG 256 608 0
FLAG 160 704 0
FLAG -400 240 OUT1
FLAG -144 -144 IN
FLAG 432 144 0
FLAG 592 288 0
FLAG 480 240 0
FLAG 480 336 0
FLAG 784 160 0
FLAG 704 160 0
FLAG 784 48 OUT2
FLAG 672 720 0
FLAG 864 608 0
FLAG 784 608 0
FLAG 864 496 OUT3
SYMBOL voltage -144 -144 R0
SYMATTR InstName V1
SYMATTR Value 5
SYMBOL ind -48 128 R0
SYMATTR InstName L1
SYMATTR Value 6.8
SYMBOL schottky -64 224 R90
WINDOW 0 0 32 VBottom 0
WINDOW 3 32 32 VTop 0
SYMATTR InstName D1
SYMATTR Value 1N5817
SYMATTR Description Diode
SYMATTR Type diode
SYMBOL res -224 240 R0
SYMATTR InstName R1
SYMATTR Value 143K
SYMBOL res -224 352 R0
SYMATTR InstName R2
SYMATTR Value 10K
SYMBOL cap -304 256 R0
SYMATTR InstName C1
SYMATTR Value 10
SYMBOL cap 16 416 R90
WINDOW 0 0 32 VBottom 0
WINDOW 3 32 32 VTop 0
SYMATTR InstName C2
SYMATTR Value .002
SYMBOL cap 16 512 R90
WINDOW 0 0 32 VBottom 0
WINDOW 3 32 32 VTop 0
WINDOW 39 60 32 VTop 0
SYMATTR InstName C3
SYMATTR Value .001
SYMATTR SpiceLine Rser=22K
SYMBOL res 144 592 R0
SYMATTR InstName R3
SYMATTR Value 15.8K
SYMBOL schottky 544 -64 R90
WINDOW 0 0 32 VBottom 0
WINDOW 3 34 10 VTop 0
SYMATTR InstName D2
SYMATTR Value CMDSH2-3
SYMATTR Description Diode
SYMATTR Type diode
SYMBOL schottky 416 128 M180
WINDOW 0 26 64 Left 0
WINDOW 3 24 0 Left 0
SYMATTR InstName D3
SYMATTR Value B520C
SYMATTR Description Diode
SYMATTR Type diode
SYMBOL ind 464 64 R270
WINDOW 0 32 56 VTop 0
WINDOW 3 5 56 VBottom 0
SYMATTR InstName L2
SYMATTR Value 3.3
SYMBOL cap 416 -32 R0
SYMATTR InstName C4
SYMATTR Value .1
SYMBOL res 576 64 R0
SYMATTR InstName R4
SYMATTR Value 32.4K
SYMBOL res 576 176 R0
SYMATTR InstName R5
SYMATTR Value 10.2K
SYMBOL cap 400 224 M90
WINDOW 0 0 32 VBottom 0
WINDOW 3 32 32 VTop 0
SYMATTR InstName C5
SYMATTR Value .002
SYMBOL cap 400 320 M90
WINDOW 0 0 32 VBottom 0
WINDOW 3 32 32 VTop 0
WINDOW 39 60 32 VTop 0
SYMATTR InstName C6
SYMATTR Value .001
SYMATTR SpiceLine Rser=22K
SYMBOL cap 688 64 R0
SYMATTR InstName C7
SYMATTR Value 22
SYMBOL npn 608 384 R0
SYMATTR InstName Q1
SYMATTR Value 2N3391A
SYMBOL res 656 496 R0
SYMATTR InstName R6
SYMATTR Value 22.1k
SYMBOL res 656 608 R0
SYMATTR InstName R7
SYMATTR Value 10.2K
SYMBOL cap 768 512 R0
SYMATTR InstName C8
SYMATTR Value 2.2
SYMBOL LT3570 208 240 R0
SYMATTR InstName U1
SYMBOL res -416 240 R0
SYMATTR InstName Rload1
SYMATTR Value 42
SYMBOL res 768 48 R0
SYMATTR InstName Rload2
SYMATTR Value 3.3
SYMBOL res 848 496 R0
SYMATTR InstName Rload3
SYMATTR Value 25
TEXT 784 688 Left 0 !.tran 750u startup
