Version 4
SHEET 1 1108 868
WIRE 128 -224 -32 -224
WIRE 224 -224 128 -224
WIRE 544 -224 224 -224
WIRE -32 -208 -32 -224
WIRE 336 -208 64 -208
WIRE 448 -208 336 -208
WIRE 608 -208 448 -208
WIRE 656 -208 608 -208
WIRE 224 -192 224 -224
WIRE 336 -192 336 -208
WIRE 448 -192 448 -208
WIRE 656 -192 656 -208
WIRE 128 -128 128 -224
WIRE 144 -128 128 -128
WIRE 544 -128 544 -224
WIRE 544 -128 528 -128
WIRE -32 -112 -32 -128
WIRE 656 -112 656 -128
WIRE 128 -32 128 -128
WIRE 144 -32 128 -32
WIRE 544 -32 544 -128
WIRE 544 -32 528 -32
WIRE 144 160 -64 160
WIRE 736 160 528 160
WIRE 144 256 96 256
WIRE 560 256 528 256
WIRE 96 272 96 256
WIRE 560 272 560 256
WIRE -144 352 -256 352
WIRE -64 352 -64 160
WIRE -64 352 -144 352
WIRE -32 352 -64 352
WIRE 96 352 96 336
WIRE 96 352 48 352
WIRE 144 352 96 352
WIRE 560 352 560 336
WIRE 560 352 528 352
WIRE 624 352 560 352
WIRE 736 352 736 160
WIRE 736 352 704 352
WIRE 848 352 736 352
WIRE 944 352 848 352
WIRE -256 368 -256 352
WIRE -64 368 -64 352
WIRE 736 368 736 352
WIRE 944 368 944 352
WIRE -144 384 -144 352
WIRE 848 384 848 352
WIRE 144 448 -64 448
WIRE 736 448 528 448
WIRE -256 464 -256 448
WIRE -144 464 -144 448
WIRE -64 464 -64 448
WIRE 736 464 736 448
WIRE 848 464 848 448
WIRE 944 464 944 448
WIRE 64 544 64 -208
WIRE 144 544 64 544
WIRE 608 544 608 -208
WIRE 608 544 528 544
WIRE -64 560 -64 544
WIRE 736 560 736 544
WIRE 64 736 64 544
WIRE 144 736 64 736
WIRE 608 736 608 544
WIRE 608 736 528 736
WIRE 256 816 256 800
WIRE 416 816 416 800
FLAG -32 -112 0
FLAG -32 -224 IN
FLAG 656 -112 0
FLAG -64 560 0
FLAG 256 816 0
FLAG 416 816 0
FLAG -144 464 0
FLAG -256 464 0
FLAG -256 352 OUT1
FLAG 736 560 0
FLAG 848 464 0
FLAG 944 464 0
FLAG 944 352 OUT2
SYMBOL voltage -32 -224 R0
SYMATTR InstName V1
SYMATTR Value 12
SYMBOL cap 640 -128 M180
WINDOW 0 24 56 Left 2
WINDOW 3 24 8 Left 2
SYMATTR InstName C1
SYMATTR Value 2.2
SYMBOL ind 64 368 M270
WINDOW 0 32 56 VTop 2
WINDOW 3 5 56 VBottom 2
SYMATTR InstName L1
SYMATTR Value 1
SYMATTR SpiceLine Rser=10m
SYMBOL cap 80 272 R0
SYMATTR InstName C4
SYMATTR Value .1
SYMBOL res -80 352 R0
SYMATTR InstName R1
SYMATTR Value 45.3K
SYMBOL res -80 448 R0
SYMATTR InstName R2
SYMATTR Value 10K
SYMBOL cap -160 384 R0
SYMATTR InstName C2
SYMATTR Value 22
SYMATTR SpiceLine Rser=5m
SYMBOL res -272 352 R0
SYMATTR InstName Rload1
SYMATTR Value 1.1
SYMBOL ind 608 368 R270
WINDOW 0 32 56 VTop 2
WINDOW 3 5 56 VBottom 2
SYMATTR InstName L2
SYMATTR Value 1.5
SYMATTR SpiceLine Rser=10m
SYMBOL cap 544 272 R0
SYMATTR InstName C3
SYMATTR Value .1
SYMBOL res 720 352 R0
SYMATTR InstName R4
SYMATTR Value 73.2K
SYMBOL res 720 448 R0
SYMATTR InstName R5
SYMATTR Value 10K
SYMBOL cap 832 384 R0
SYMATTR InstName C9
SYMATTR Value 22
SYMATTR SpiceLine Rser=5m
SYMBOL res 928 352 R0
SYMATTR InstName Rload2
SYMATTR Value 1.667
SYMBOL PowerProducts\\LTC3633A-2 336 304 R0
SYMATTR InstName U1
TEXT 712 672 Left 2 !.tran .5m startup
