Version 4
SHEET 1 880 680
WIRE 96 80 0 80
WIRE 112 80 96 80
WIRE 352 80 336 80
WIRE 448 80 432 80
WIRE 496 80 448 80
WIRE 576 80 496 80
WIRE 0 96 0 80
WIRE 496 96 496 80
WIRE 576 96 576 80
WIRE 96 176 96 80
WIRE 112 176 96 176
WIRE 448 176 448 80
WIRE 448 176 336 176
WIRE 0 192 0 176
WIRE 496 192 496 160
WIRE 576 192 576 176
WIRE 352 368 336 368
FLAG 0 192 0
FLAG 352 368 0
FLAG 496 192 0
FLAG 576 192 0
FLAG 0 80 IN
FLAG 576 80 OUT
SYMBOL voltage 0 80 R0
SYMATTR InstName V1
SYMATTR Value 45
SYMBOL ind 336 96 R270
WINDOW 0 32 56 VTop 0
WINDOW 3 5 56 VBottom 0
SYMATTR InstName L1
SYMATTR Value 150µ
SYMBOL cap 480 96 R0
SYMATTR InstName C1
SYMATTR Value 10µ
SYMBOL res 560 80 R0
SYMATTR InstName Rload
SYMATTR Value 66
SYMBOL PowerProducts\\LTC3642-3.3 224 224 R0
SYMATTR InstName U1
TEXT 448 360 Left 0 !.tran 1.5m startup
