Version 4
SHEET 1 1108 740
WIRE 96 32 -240 32
WIRE 112 32 96 32
WIRE 416 32 400 32
WIRE 528 32 496 32
WIRE 576 32 528 32
WIRE 672 32 576 32
WIRE -240 48 -240 32
WIRE 672 48 672 32
WIRE 576 64 576 32
WIRE 96 128 96 32
WIRE 112 128 96 128
WIRE 528 128 528 32
WIRE 528 128 400 128
WIRE -240 144 -240 128
WIRE 576 144 576 128
WIRE 672 144 672 128
WIRE -160 224 -288 224
WIRE 112 224 -160 224
WIRE 528 224 528 128
WIRE 528 224 400 224
WIRE -288 240 -288 224
WIRE -160 240 -160 224
WIRE 64 320 -64 320
WIRE 112 320 64 320
WIRE 416 320 400 320
WIRE -288 336 -288 320
WIRE -160 336 -160 304
WIRE -64 336 -64 320
WIRE 64 336 64 320
WIRE -64 432 -64 416
WIRE 64 432 64 400
FLAG -240 144 0
FLAG -240 32 IN
FLAG 672 144 0
FLAG 576 144 0
FLAG 672 32 OUT1
FLAG -288 336 0
FLAG -160 336 0
FLAG -288 224 OUT2
FLAG -64 432 0
FLAG 64 432 0
FLAG -64 320 OUT3
FLAG 416 320 0
SYMBOL voltage -240 32 R0
SYMATTR InstName V1
SYMATTR Value 3.6
SYMBOL ind 400 48 R270
WINDOW 0 32 56 VTop 0
WINDOW 3 5 56 VBottom 0
SYMATTR InstName L1
SYMATTR Value 4.7
SYMBOL cap 560 64 R0
SYMATTR InstName C1
SYMATTR Value 10
SYMBOL cap -176 240 R0
SYMATTR InstName C2
SYMATTR Value 1
SYMBOL cap 48 336 R0
SYMATTR InstName C3
SYMATTR Value 1
SYMBOL PowerProducts\\LTC3672B-1 256 176 R0
SYMATTR InstName U1
SYMBOL res 656 32 R0
SYMATTR InstName Rload1
SYMATTR Value 7.2
SYMBOL res -304 224 R0
SYMATTR InstName Rload2
SYMATTR Value 8
SYMBOL res -80 320 R0
SYMATTR InstName Rload3
SYMATTR Value 18.6
TEXT 456 376 Left 0 !.tran .5m startup
