Version 4
SHEET 1 1052 936
WIRE 144 -368 -160 -368
WIRE 768 -368 144 -368
WIRE 464 -336 336 -336
WIRE 544 -336 464 -336
WIRE 144 -320 144 -368
WIRE 336 -320 336 -336
WIRE 544 -320 544 -336
WIRE -160 -256 -160 -368
WIRE 32 -256 -160 -256
WIRE 464 -256 464 -336
WIRE 464 -256 448 -256
WIRE 544 -224 544 -240
WIRE -160 -160 -160 -256
WIRE -144 -160 -160 -160
WIRE -32 -160 -80 -160
WIRE 32 -160 -32 -160
WIRE 496 -160 448 -160
WIRE 576 -160 496 -160
WIRE 768 -160 768 -368
WIRE 768 -160 640 -160
WIRE -32 -144 -32 -160
WIRE 496 -144 496 -160
WIRE -144 -64 -160 -64
WIRE -32 -64 -32 -80
WIRE -32 -64 -80 -64
WIRE 32 -64 -32 -64
WIRE 496 -64 496 -80
WIRE 496 -64 448 -64
WIRE 576 -64 496 -64
WIRE 656 -64 640 -64
WIRE -32 -48 -32 -64
WIRE 496 -48 496 -64
WIRE 32 32 -32 32
WIRE 496 32 448 32
WIRE -288 128 -432 128
WIRE -192 128 -288 128
WIRE -48 128 -192 128
WIRE 32 128 -48 128
WIRE 576 128 448 128
WIRE 640 128 576 128
WIRE 768 128 768 -160
WIRE 768 128 640 128
WIRE 880 128 768 128
WIRE -432 144 -432 128
WIRE -288 144 -288 128
WIRE -48 144 -48 128
WIRE 768 144 768 128
WIRE 880 144 880 128
WIRE -192 224 -192 208
WIRE -48 224 -48 208
WIRE -48 224 -192 224
WIRE 32 224 -48 224
WIRE 480 224 448 224
WIRE 608 224 480 224
WIRE 640 224 640 208
WIRE 640 224 608 224
WIRE -432 240 -432 224
WIRE -288 240 -288 208
WIRE -192 240 -192 224
WIRE 640 240 640 224
WIRE 768 240 768 208
WIRE 880 240 880 224
WIRE 32 320 -128 320
WIRE 480 320 480 224
WIRE 480 320 448 320
WIRE -192 336 -192 320
WIRE 640 336 640 320
WIRE 32 416 16 416
WIRE 480 416 448 416
WIRE 576 416 576 128
WIRE 576 416 560 416
WIRE -64 512 -96 512
WIRE 16 512 16 416
WIRE 16 512 0 512
WIRE 32 512 16 512
WIRE 480 512 448 512
WIRE 576 512 544 512
WIRE -64 608 -96 608
WIRE 32 608 0 608
WIRE 480 608 448 608
WIRE 576 608 544 608
WIRE -80 704 -96 704
WIRE 32 704 0 704
WIRE 480 704 448 704
WIRE 576 704 560 704
WIRE 144 784 144 768
WIRE 240 784 240 768
WIRE 336 784 336 768
WIRE 144 880 144 864
WIRE 336 880 336 864
WIRE -128 912 -128 320
WIRE 608 912 608 224
WIRE 608 912 -128 912
FLAG 240 784 0
FLAG 144 880 0
FLAG 544 -224 0
FLAG 656 -64 0
FLAG 640 336 0
FLAG 576 608 0
FLAG 576 512 0
FLAG 576 704 0
FLAG 768 240 0
FLAG 880 240 0
FLAG 880 128 OUT1
FLAG 544 -336 IN
FLAG -160 -64 0
FLAG -192 336 0
FLAG -96 608 0
FLAG -96 512 0
FLAG -288 240 0
FLAG -432 240 0
FLAG -432 128 OUT2
FLAG 336 880 0
FLAG -96 704 0
SYMBOL res 128 768 R0
SYMATTR InstName R1
SYMATTR Value 68.1K
SYMBOL voltage 544 -336 R0
SYMATTR InstName V1
SYMATTR Value 24
SYMBOL ind 480 -64 R0
WINDOW 3 38 71 Left 2
SYMATTR InstName L1
SYMATTR Value 4.7
SYMBOL schottky 640 -48 M270
WINDOW 0 32 32 VTop 2
WINDOW 3 0 32 VBottom 2
SYMATTR InstName D1
SYMATTR Value B520C
SYMATTR Description Diode
SYMATTR Type diode
SYMBOL cap 480 -80 M180
WINDOW 0 24 56 Left 2
WINDOW 3 24 8 Left 2
SYMATTR InstName C1
SYMATTR Value .22
SYMBOL schottky 640 -144 M270
WINDOW 0 32 32 VTop 2
WINDOW 3 0 32 VBottom 2
SYMATTR InstName D2
SYMATTR Value 1N5817
SYMATTR Description Diode
SYMATTR Type diode
SYMBOL res 624 112 R0
SYMATTR InstName R2
SYMATTR Value 24.9K
SYMBOL res 624 224 R0
SYMATTR InstName R3
SYMATTR Value 8.06K
SYMBOL cap 480 624 R270
WINDOW 0 32 32 VTop 2
WINDOW 3 0 32 VBottom 2
WINDOW 39 -16 100 VBottom 2
SYMATTR InstName C2
SYMATTR Value 680p
SYMATTR SpiceLine Rser=13K Cpar=33p
SYMBOL cap 480 528 R270
WINDOW 0 32 32 VTop 2
WINDOW 3 0 32 VBottom 2
SYMATTR InstName C3
SYMATTR Value .01
SYMBOL res 464 720 R270
WINDOW 0 32 56 VTop 2
WINDOW 3 0 56 VBottom 2
SYMATTR InstName R4
SYMATTR Value 100K
SYMBOL cap 752 144 R0
WINDOW 3 24 64 Left 2
WINDOW 123 24 92 Left 2
SYMATTR Value 47
SYMATTR InstName C4
SYMATTR SpiceLine V=6.3 Irms=0 Rser=0.002 Lser=0 mfg="TDK" pn="C4532X5ROJ47@M" type="X5R"
SYMBOL res 864 128 R0
SYMATTR InstName Rload1
SYMATTR Value 1.32
SYMBOL ind -16 -64 M0
WINDOW 0 -1 30 Right 2
WINDOW 3 3 75 Right 2
SYMATTR InstName L2
SYMATTR Value .5
SYMBOL schottky -144 -80 M90
WINDOW 0 0 32 VBottom 2
WINDOW 3 32 32 VTop 2
SYMATTR InstName D3
SYMATTR Value B520C
SYMATTR Description Diode
SYMATTR Type diode
SYMBOL res -208 112 R0
SYMATTR InstName R5
SYMATTR Value 4.02K
SYMBOL res -208 224 R0
SYMATTR InstName R6
SYMATTR Value 8.06K
SYMBOL cap 0 624 M270
WINDOW 0 32 32 VTop 2
WINDOW 3 0 32 VBottom 2
WINDOW 39 -16 100 VBottom 2
SYMATTR InstName C6
SYMATTR Value 220p
SYMATTR SpiceLine Rser=40.2K Cpar=22p
SYMBOL cap 0 528 M270
WINDOW 0 32 32 VTop 2
WINDOW 3 0 32 VBottom 2
SYMATTR InstName C7
SYMATTR Value .01
SYMBOL polcap -304 144 R0
WINDOW 3 24 64 Left 2
WINDOW 123 24 92 Left 2
SYMATTR Value 47
SYMATTR InstName C8
SYMATTR Description Capacitor
SYMATTR Type cap
SYMATTR SpiceLine V=6.3 Irms=1.5 Rser=0.04 Lser=0 mfg="KEMET" pn="T520B476M006ASE040" type="Tantalum"
SYMBOL res -448 128 R0
SYMATTR InstName Rload2
SYMATTR Value 1.2
SYMBOL PowerProducts\\LT3692A 240 224 R0
SYMATTR InstName U1
SYMBOL res 576 400 R90
WINDOW 0 0 56 VBottom 2
WINDOW 3 32 56 VTop 2
SYMATTR InstName R7
SYMATTR Value 100K
SYMBOL res 320 768 R0
SYMATTR InstName R8
SYMATTR Value 100K
SYMBOL res 16 720 M270
WINDOW 0 32 56 VTop 2
WINDOW 3 0 56 VBottom 2
SYMATTR InstName R9
SYMATTR Value 33.2K
SYMBOL cap -64 144 R0
SYMATTR InstName C9
SYMATTR Value 100p
SYMBOL cap -48 -80 M180
WINDOW 0 24 56 Left 2
WINDOW 3 24 8 Left 2
SYMATTR InstName C5
SYMATTR Value .1
SYMBOL schottky -144 -144 R270
WINDOW 0 32 32 VTop 2
WINDOW 3 0 32 VBottom 2
SYMATTR InstName D4
SYMATTR Value 1N5817
SYMATTR Description Diode
SYMATTR Type diode
TEXT 800 672 Left 2 !.tran 1.5m startup
