Version 4
SHEET 1 2776 1716
WIRE 1904 1088 1728 1088
WIRE 2080 1088 1904 1088
WIRE 2224 1088 2080 1088
WIRE 2224 1104 2224 1088
WIRE 1904 1120 1904 1088
WIRE 2080 1184 2080 1088
WIRE 1728 1200 1728 1088
WIRE 2224 1200 2224 1184
WIRE 1568 1264 1536 1264
WIRE 2032 1264 1888 1264
WIRE 1392 1360 1376 1360
WIRE 1472 1360 1456 1360
WIRE 1568 1360 1552 1360
WIRE 1904 1360 1904 1184
WIRE 1904 1360 1888 1360
WIRE 1936 1360 1904 1360
WIRE 2080 1360 2080 1280
WIRE 2080 1360 2000 1360
WIRE 2128 1360 2080 1360
WIRE 2240 1360 2208 1360
WIRE 2352 1360 2240 1360
WIRE 2448 1360 2352 1360
WIRE 2560 1360 2448 1360
WIRE 2080 1376 2080 1360
WIRE 2448 1376 2448 1360
WIRE 2560 1376 2560 1360
WIRE 2240 1424 2240 1360
WIRE 2352 1424 2352 1360
WIRE 1568 1456 1536 1456
WIRE 2032 1456 1888 1456
WIRE 2448 1472 2448 1440
WIRE 2560 1472 2560 1456
WIRE 2080 1488 2080 1472
WIRE 1728 1536 1728 1520
WIRE 1536 1568 1536 1456
WIRE 2240 1568 2240 1504
WIRE 2240 1568 1536 1568
WIRE 2352 1568 2352 1488
WIRE 2352 1568 2240 1568
WIRE 2240 1584 2240 1568
WIRE 2240 1680 2240 1664
FLAG 1376 1360 0
FLAG 1728 1536 0
FLAG 2080 1488 0
FLAG 2448 1472 0
FLAG 2560 1472 0
FLAG 2224 1200 0
FLAG 2560 1360 OUT
FLAG 2240 1680 0
FLAG 2224 1088 IN
SYMBOL cap 1456 1344 R90
WINDOW 0 0 32 VBottom 0
WINDOW 3 32 32 VTop 0
SYMATTR InstName C1
SYMATTR Value .01
SYMBOL RES 1568 1344 R90
WINDOW 0 0 56 VBottom 0
WINDOW 3 32 56 VTop 0
SYMATTR InstName R1
SYMATTR Value 15K
SYMBOL NMOS 2032 1184 R0
SYMATTR InstName Q1
SYMATTR Value Si9428DY
SYMBOL nmos 2032 1376 R0
SYMATTR InstName Q2
SYMATTR Value Si9428DY
SYMBOL schottky 1888 1120 R0
SYMATTR InstName D1
SYMATTR Value MBR0520L
SYMBOL cap 2000 1344 R90
WINDOW 0 0 32 VBottom 0
WINDOW 3 32 32 VTop 0
SYMATTR InstName C2
SYMATTR Value .1
SYMBOL ind 2112 1376 R270
WINDOW 0 32 56 VTop 0
WINDOW 3 5 56 VBottom 0
SYMATTR InstName L1
SYMATTR Value 3.2
SYMBOL cap 2432 1376 R0
SYMATTR InstName C3
SYMATTR Value 270
SYMATTR SpiceLine Rser=15m
SYMBOL VOLTAGE 2224 1088 R0
SYMATTR InstName V1
SYMATTR Value 5
SYMBOL POWERPRODUCTS\\LTC3830ES8 1728 1360 R0
SYMATTR InstName U1
SYMBOL RES 2224 1408 R0
SYMATTR InstName R2
SYMATTR Value 5.36K
SYMBOL RES 2224 1568 R0
SYMATTR InstName R3
SYMATTR Value 12.7K
SYMBOL cap 2336 1424 R0
SYMATTR InstName C4
SYMATTR Value .0033
SYMBOL res 2544 1360 R0
SYMATTR InstName Rload
SYMATTR Value 2
TEXT 1952 1632 Left 0 !.tran 2m startup
