Version 4
SHEET 1 2360 892
WIRE -32 -848 -112 -848
WIRE -16 -848 -32 -848
WIRE 80 -848 64 -848
WIRE 144 -848 80 -848
WIRE 432 -848 144 -848
WIRE 896 -848 432 -848
WIRE -112 -832 -112 -848
WIRE -32 -832 -32 -848
WIRE 80 -832 80 -848
WIRE 144 -832 144 -848
WIRE 0 -800 -32 -832
WIRE 48 -800 80 -832
WIRE 800 -800 560 -800
WIRE 1184 -800 864 -800
WIRE 144 -752 144 -768
WIRE 480 -752 464 -752
WIRE 560 -752 560 -800
WIRE 560 -752 544 -752
WIRE 640 -752 560 -752
WIRE 768 -752 704 -752
WIRE -112 -736 -112 -752
WIRE 432 -704 432 -848
WIRE 560 -704 560 -752
WIRE 304 -656 80 -656
WIRE 768 -656 768 -752
WIRE 768 -656 688 -656
WIRE 896 -656 896 -848
WIRE 224 -576 192 -576
WIRE 304 -576 288 -576
WIRE 848 -576 688 -576
WIRE 304 -496 272 -496
WIRE 768 -496 768 -592
WIRE 768 -496 688 -496
WIRE 896 -496 896 -560
WIRE 896 -496 768 -496
WIRE 944 -496 896 -496
WIRE 976 -496 944 -496
WIRE 1072 -496 1056 -496
WIRE 1088 -496 1072 -496
WIRE 1184 -496 1184 -800
WIRE 1184 -496 1168 -496
WIRE 1232 -496 1184 -496
WIRE 1344 -496 1232 -496
WIRE 1664 -496 1440 -496
WIRE 1856 -496 1664 -496
WIRE 1936 -496 1856 -496
WIRE 1232 -480 1232 -496
WIRE 1936 -480 1936 -496
WIRE 944 -464 944 -496
WIRE 160 -416 144 -416
WIRE 304 -416 240 -416
WIRE 848 -416 688 -416
WIRE 896 -384 896 -400
WIRE 944 -384 944 -400
WIRE 1232 -384 1232 -416
WIRE 1936 -384 1936 -400
WIRE 304 -336 128 -336
WIRE 1072 -336 1072 -496
WIRE 1072 -336 688 -336
WIRE 1664 -320 1664 -496
WIRE 272 -256 272 -496
WIRE 304 -256 272 -256
WIRE 1184 -256 1184 -496
WIRE 1184 -256 688 -256
WIRE 432 -192 432 -208
WIRE 560 -192 560 -208
WIRE 176 -160 160 -160
WIRE 272 -160 272 -256
WIRE 272 -160 256 -160
WIRE 800 -160 272 -160
WIRE 1184 -160 1184 -256
WIRE 1184 -160 880 -160
WIRE 128 -96 128 -336
WIRE 1024 -96 128 -96
WIRE 1088 -96 1024 -96
WIRE 1200 -96 1152 -96
WIRE 1856 -80 1856 -496
WIRE 1856 -80 1840 -80
WIRE 1808 -48 1840 -80
WIRE 1808 -48 1504 -48
WIRE 1856 -48 1856 -80
WIRE 1024 -32 1024 -96
WIRE 1200 -32 1200 -96
WIRE 1344 -32 1344 -496
WIRE 1424 -32 1424 -448
WIRE 1504 -32 1504 -48
WIRE 128 -16 128 -32
WIRE 1808 16 1600 16
WIRE 80 32 80 -656
WIRE 560 32 80 32
WIRE 976 32 560 32
WIRE 1840 48 1808 16
WIRE 1856 48 1856 32
WIRE 1856 48 1840 48
WIRE 1856 64 1856 48
WIRE 48 80 48 -800
WIRE 976 80 48 80
WIRE 1808 80 1600 80
WIRE 0 112 0 -800
WIRE 784 112 0 112
WIRE 912 112 784 112
WIRE 976 112 912 112
WIRE 784 128 784 112
WIRE 912 128 912 112
WIRE 560 160 560 32
WIRE 1856 160 1600 160
WIRE 912 208 912 192
WIRE 1664 208 1664 -240
WIRE 1664 208 1600 208
WIRE 784 240 784 208
WIRE 784 240 688 240
WIRE 976 240 784 240
WIRE 688 256 688 240
WIRE 784 256 784 240
WIRE 1664 304 1664 288
WIRE 1664 304 1600 304
WIRE 1664 320 1664 304
WIRE 688 352 688 320
WIRE 784 352 784 336
WIRE 976 352 944 352
WIRE 976 400 672 400
WIRE 1664 400 1600 400
WIRE 1760 400 1664 400
WIRE 1856 400 1856 160
WIRE 1856 400 1840 400
WIRE 976 448 768 448
WIRE 1856 448 1856 400
WIRE 672 480 672 400
WIRE 976 496 912 496
WIRE 1648 512 1600 512
WIRE 1744 512 1648 512
WIRE 1648 528 1648 512
WIRE 1744 528 1744 512
WIRE 896 544 848 544
WIRE 976 544 960 544
WIRE 1856 544 1856 512
WIRE 768 592 768 448
WIRE 1744 624 1744 608
WIRE 1056 640 1056 624
WIRE 1280 640 1280 624
WIRE 1344 640 1344 624
WIRE 1424 640 1424 624
WIRE 1504 640 1504 624
WIRE 1648 640 1648 608
WIRE 1648 640 1504 640
WIRE 1168 656 1168 624
WIRE 1504 656 1504 640
WIRE 1056 736 1056 704
WIRE 1280 736 1280 720
WIRE 1344 736 1344 720
WIRE 1504 736 1504 720
WIRE 560 768 560 240
WIRE 672 768 672 560
WIRE 672 768 560 768
WIRE 768 768 768 672
WIRE 768 768 672 768
WIRE 1648 768 1648 640
WIRE 1648 768 768 768
FLAG 896 -384 0
FLAG 560 -192 0
FLAG 1232 -384 0
FLAG 1936 -384 0
FLAG 1936 -496 OUT
FLAG 944 -384 0
FLAG 432 -192 0
FLAG 192 -576 0
FLAG 144 -416 0
FLAG 160 -160 0
FLAG 464 -752 0
FLAG 784 352 0
FLAG 912 208 0
FLAG 848 496 0
FLAG 848 544 0
FLAG 1856 544 0
FLAG 1504 736 0
FLAG 1744 624 0
FLAG 128 -16 0
FLAG -112 -736 0
FLAG -112 -848 IN
FLAG 144 -752 0
FLAG 1056 736 0
FLAG 1280 736 0
FLAG 1344 736 0
FLAG 1424 640 0
FLAG 688 352 0
SYMBOL nmos 848 -656 R0
SYMATTR InstName Q1
SYMATTR Value BSC123N08NS3
SYMBOL nmos 848 -496 R0
WINDOW 0 -2 31 Right 0
WINDOW 3 31 101 Right 0
SYMATTR InstName Q2
SYMATTR Value BSC123N08NS3
SYMBOL schottky 640 -736 R270
WINDOW 0 32 32 VTop 0
WINDOW 3 0 32 VBottom 0
SYMATTR InstName D1
SYMATTR Value MBRS140
SYMATTR Description Diode
SYMATTR Type diode
SYMBOL cap 752 -656 R0
SYMATTR InstName C1
SYMATTR Value .1
SYMBOL cap 1088 -112 M90
WINDOW 0 0 32 VBottom 0
WINDOW 3 32 32 VTop 0
WINDOW 39 53 32 VTop 0
SYMATTR InstName C2
SYMATTR Value 47n
SYMATTR SpiceLine Rser=14.7K
SYMBOL schottky 928 -400 M180
WINDOW 0 24 72 Left 0
WINDOW 3 20 1 Left 0
SYMATTR InstName D2
SYMATTR Value MBRS1100
SYMATTR Description Diode
SYMATTR Type diode
SYMBOL ind 960 -480 R270
WINDOW 0 32 56 VTop 0
WINDOW 3 5 56 VBottom 0
SYMATTR InstName L1
SYMATTR Value 10
SYMATTR SpiceLine Rpar=2K
SYMBOL res 1072 -480 R270
WINDOW 0 32 56 VTop 0
WINDOW 3 0 56 VBottom 0
SYMATTR InstName R1
SYMATTR Value 3m
SYMBOL res 256 -432 R90
WINDOW 0 0 56 VBottom 0
WINDOW 3 32 56 VTop 0
SYMATTR InstName R2
SYMATTR Value 49.9K
SYMBOL cap 288 -592 R90
WINDOW 0 0 32 VBottom 0
WINDOW 3 32 32 VTop 0
SYMATTR InstName C3
SYMATTR Value .002
SYMBOL cap 1216 -480 R0
SYMATTR InstName C4
SYMATTR Value 100
SYMBOL diode 864 -816 R90
WINDOW 0 0 32 VBottom 0
WINDOW 3 32 32 VTop 0
SYMATTR InstName D3
SYMATTR Value 1N4148
SYMBOL res 784 -144 R270
WINDOW 0 32 56 VTop 0
WINDOW 3 0 56 VBottom 0
SYMATTR InstName R3
SYMATTR Value 150K
SYMBOL res 160 -144 R270
WINDOW 0 32 56 VTop 0
WINDOW 3 0 56 VBottom 0
SYMATTR InstName R4
SYMATTR Value 16.2K
SYMBOL cap 544 -768 R90
WINDOW 0 0 32 VBottom 0
WINDOW 3 32 32 VTop 0
SYMATTR InstName C5
SYMATTR Value 1
SYMBOL PowerProducts\\LT3845A 496 -464 R0
SYMATTR InstName U1
SYMBOL res 544 256 M180
WINDOW 0 36 76 Left 0
WINDOW 3 36 40 Left 0
SYMATTR InstName R5
SYMATTR Value 1Meg
SYMBOL res 768 112 R0
SYMATTR InstName R6
SYMATTR Value 1.1Meg
SYMBOL res 768 240 R0
SYMATTR InstName R7
SYMATTR Value 100K
SYMBOL cap 896 128 R0
SYMATTR InstName C6
SYMATTR Value 1
SYMBOL cap 912 480 R90
WINDOW 0 0 32 VBottom 0
WINDOW 3 32 32 VTop 0
SYMATTR InstName C7
SYMATTR Value 10n
SYMBOL cap 960 528 R90
WINDOW 0 0 32 VBottom 0
WINDOW 3 32 32 VTop 0
SYMATTR InstName C8
SYMATTR Value 10n
SYMBOL res 752 688 M180
WINDOW 0 36 76 Left 0
WINDOW 3 36 40 Left 0
SYMATTR InstName R8
SYMATTR Value 100K
SYMBOL res 656 576 M180
WINDOW 0 36 76 Left 0
WINDOW 3 36 40 Left 0
SYMATTR InstName R9
SYMATTR Value 100K
SYMBOL pmos 1344 -448 R270
WINDOW 0 59 51 VTop 0
WINDOW 3 -9 92 VRight 0
SYMATTR InstName Q3
SYMATTR Value Si4427DY
SYMBOL pmos 1808 160 M180
WINDOW 0 63 63 Left 0
WINDOW 3 66 25 Left 0
SYMATTR InstName Q4
SYMATTR Value Si4427DY
SYMBOL res 1648 -336 R0
SYMATTR InstName R10
SYMATTR Value 1.15Meg
SYMBOL res 1648 192 R0
SYMATTR InstName R11
SYMATTR Value 127K
SYMBOL res 1648 304 R0
SYMATTR InstName R12
SYMATTR Value 133K
SYMBOL res 1856 384 R90
WINDOW 0 0 56 VBottom 0
WINDOW 3 32 56 VTop 0
SYMATTR InstName R13
SYMATTR Value 1.13Meg
SYMBOL cap 1488 656 R0
SYMATTR InstName C9
SYMATTR Value 1
SYMBOL res 1632 624 M180
WINDOW 0 36 76 Left 0
WINDOW 3 36 40 Left 0
SYMATTR InstName R14
SYMATTR Value 10K
SYMBOL res 1728 624 M180
WINDOW 0 36 76 Left 0
WINDOW 3 36 40 Left 0
SYMATTR InstName R15
SYMATTR Value 10K
SYMBOL res 1328 736 M180
WINDOW 0 36 76 Left 0
WINDOW 3 36 40 Left 0
SYMATTR InstName R16
SYMATTR Value 22.1K
SYMBOL res 1296 736 R180
WINDOW 0 36 76 Left 0
WINDOW 3 36 40 Left 0
SYMATTR InstName R17
SYMATTR Value 24.9K
SYMBOL cap 1040 640 R0
SYMATTR InstName C10
SYMATTR Value .01
SYMBOL res 1840 -64 R0
SYMATTR InstName R18
SYMATTR Value 5m
SYMBOL cap 112 -96 R0
WINDOW 0 32 18 Left 0
WINDOW 3 38 43 Left 0
WINDOW 39 27 67 Left 0
SYMATTR InstName C11
SYMATTR Value 2200p
SYMATTR SpiceLine Rser=20K Cpar=100p
SYMBOL cap 1840 448 R0
WINDOW 39 24 85 Left 0
SYMATTR Value 500
SYMATTR InstName Battery
SYMBOL diode 672 320 M180
WINDOW 0 34 59 Left 0
WINDOW 3 24 0 Left 0
SYMATTR InstName D4
SYMATTR Value 2V
SYMBOL LTC4000 1024 272 R0
SYMATTR InstName U2
SYMATTR SpiceLine period=2
SYMBOL voltage -112 -848 R0
WINDOW 3 25 101 Left 0
SYMATTR Value 36
SYMATTR InstName V2
SYMBOL res -32 -832 R270
WINDOW 0 32 56 VTop 0
WINDOW 3 0 56 VBottom 0
SYMATTR InstName R19
SYMATTR Value 5m
SYMBOL cap 128 -832 R0
WINDOW 39 24 85 Left 0
SYMATTR InstName C13
SYMATTR Value 100
SYMBOL res 1920 -496 R0
SYMATTR InstName Rload
SYMATTR Value 10
TEXT -128 392 Left 0 !.model 2V D(Ron=100 Roff=1G epsilon=1 Vrev=2 revepsilon=.1)
TEXT 200 208 Left 0 !.tran 5m startup
