Version 4
SHEET 1 2240 884
WIRE 32 -256 -48 -256
WIRE 48 -256 32 -256
WIRE 160 -256 128 -256
WIRE 256 -256 160 -256
WIRE 576 -256 352 -256
WIRE 624 -256 576 -256
WIRE 672 -256 624 -256
WIRE 784 -256 672 -256
WIRE 784 -240 784 -256
WIRE -48 -224 -48 -256
WIRE 672 -224 672 -256
WIRE 944 -224 832 -224
WIRE 336 -192 336 -208
WIRE 944 -192 944 -224
WIRE 672 -144 672 -160
WIRE 784 -144 784 -160
WIRE -48 -128 -48 -144
WIRE 336 -96 336 -112
WIRE 368 -96 336 -96
WIRE 464 -96 448 -96
WIRE 544 -96 528 -96
WIRE 944 -96 944 -112
WIRE 336 -48 336 -96
WIRE 160 0 160 -256
WIRE 192 0 160 0
WIRE 576 0 576 -256
WIRE 576 0 480 0
WIRE 624 48 624 -256
WIRE 32 64 32 -256
WIRE 160 64 32 64
WIRE 192 64 160 64
WIRE 160 128 160 64
WIRE 192 128 160 128
WIRE 192 192 160 192
WIRE 624 192 624 128
WIRE 624 192 480 192
WIRE 496 256 480 256
WIRE 640 256 576 256
WIRE 160 320 160 192
WIRE 192 320 160 320
WIRE 560 320 480 320
WIRE 640 320 624 320
WIRE 496 384 480 384
WIRE 640 384 560 384
WIRE 336 464 336 432
FLAG 640 384 0
FLAG 336 464 0
FLAG 640 256 0
FLAG -48 -128 0
FLAG 544 -96 0
FLAG 640 320 0
FLAG 672 -144 0
FLAG 784 -144 0
FLAG 832 -176 0
FLAG 944 -96 0
FLAG 784 -256 OUT
FLAG -48 -256 IN
SYMBOL cap 496 400 R270
WINDOW 0 32 32 VTop 0
WINDOW 3 0 32 VBottom 0
SYMATTR InstName C1
SYMATTR Value .1
SYMBOL nmos 256 -208 R270
WINDOW 0 60 43 VTop 0
WINDOW 3 -12 69 VLeft 0
SYMATTR InstName Q1
SYMATTR Value Si4410DY
SYMBOL voltage -48 -240 R0
WINDOW 123 0 0 Left 0
WINDOW 39 0 0 Left 0
SYMATTR InstName V1
SYMATTR Value 12
SYMBOL cap 656 -224 R0
SYMATTR InstName C2
SYMATTR Value 330
SYMBOL cap 464 -112 M90
WINDOW 0 0 32 VBottom 0
WINDOW 3 32 32 VTop 0
SYMATTR InstName C3
SYMATTR Value .01
SYMBOL LTC4218-12 336 192 R0
SYMATTR InstName U1
SYMBOL res 144 -272 R90
WINDOW 0 0 56 VBottom 0
WINDOW 3 32 56 VTop 0
SYMATTR InstName R1
SYMATTR Value .002
SYMBOL res 608 32 R0
SYMATTR InstName R2
SYMATTR Value 20K
SYMBOL res 480 272 R270
WINDOW 0 32 56 VTop 0
WINDOW 3 0 56 VBottom 0
SYMATTR InstName R3
SYMATTR Value 20K
SYMBOL res 320 -208 R0
SYMATTR InstName R4
SYMATTR Value 10
SYMBOL res 352 -112 M90
WINDOW 0 0 56 VBottom 0
WINDOW 3 32 56 VTop 0
SYMATTR InstName R5
SYMATTR Value 1K
SYMBOL cap 560 336 R270
WINDOW 0 32 32 VTop 0
WINDOW 3 0 32 VBottom 0
SYMATTR InstName C4
SYMATTR Value .1
SYMBOL sw 784 -144 R180
WINDOW 0 -23 102 Right 0
WINDOW 3 -26 2 Right 0
SYMATTR InstName S1
SYMATTR Value SHORT
SYMBOL voltage 944 -208 R0
WINDOW 123 0 0 Left 0
WINDOW 39 0 0 Left 0
SYMATTR InstName V2
SYMATTR Value PULSE(0 1 240m 1m 1m 10m)
TEXT 760 72 Left 0 !.model SHORT SW(Ron=10m Roff=1K Vt=.5 Vh=-.4)
TEXT 776 16 Left 0 !.tran 600m startup
