Version 4
SHEET 1 1516 692
WIRE -560 80 -1488 80
WIRE -496 80 -560 80
WIRE -384 80 -432 80
WIRE -224 80 -384 80
WIRE 320 80 -224 80
WIRE 416 80 320 80
WIRE 528 80 416 80
WIRE 624 80 528 80
WIRE 768 80 624 80
WIRE -560 112 -560 80
WIRE -224 112 -224 80
WIRE 416 112 416 80
WIRE -64 144 -96 144
WIRE 320 144 320 80
WIRE 320 144 288 144
WIRE 528 192 528 80
WIRE -384 224 -384 80
WIRE -224 224 -224 192
WIRE -64 224 -224 224
WIRE 416 224 416 192
WIRE 416 224 288 224
WIRE 624 224 624 80
WIRE 768 224 768 80
WIRE -1488 256 -1488 80
WIRE -64 304 -224 304
WIRE 528 304 528 272
WIRE 528 304 288 304
WIRE -224 336 -224 304
WIRE -96 384 -96 144
WIRE -64 384 -96 384
WIRE 320 384 288 384
WIRE -1488 464 -1488 336
WIRE -496 464 -1488 464
WIRE -384 464 -384 288
WIRE -384 464 -432 464
WIRE -224 464 -224 416
WIRE -224 464 -384 464
WIRE -96 464 -96 384
WIRE -96 464 -224 464
WIRE -64 464 -96 464
WIRE 320 464 320 384
WIRE 320 464 288 464
WIRE 624 464 624 288
WIRE 624 464 320 464
WIRE 768 464 768 304
WIRE 768 464 624 464
FLAG 768 464 OUT
FLAG -560 112 0
FLAG -384 464 IN
SYMBOL voltage -1488 240 R0
WINDOW 3 40 57 Left 2
WINDOW 123 22 102 Left 2
SYMATTR Value PWL(0 0 10m 6 250m 6 260m 5 500m 5 505m 8 555m 8 560m 4 610m 4
SYMATTR Value2 611m 17 621m 17 622m 8 627m 8 628m 17 638m 17 639m 8 659m 8 660m 57)
SYMATTR InstName VPSE
SYMBOL res -240 320 R0
SYMATTR InstName Rclass
SYMATTR Value 30.9
SYMBOL res 400 96 R0
SYMATTR InstName R2
SYMATTR Value 100K
SYMBOL res 512 176 R0
SYMATTR InstName R3
SYMATTR Value 100K
SYMBOL res -240 96 R0
SYMATTR InstName R1
SYMATTR Value 100K
SYMBOL cap 608 224 R0
WINDOW 39 24 84 Left 2
SYMATTR SpiceLine Rser=10m
SYMATTR InstName Cload
SYMATTR Value 100µ
SYMBOL cap -400 224 R0
WINDOW 39 24 84 Left 2
SYMATTR SpiceLine Rser=10m
SYMATTR InstName C1
SYMATTR Value .1µ
SYMBOL diode -496 64 M90
WINDOW 0 0 32 VBottom 2
WINDOW 3 32 32 VTop 2
SYMATTR InstName D1
SYMATTR Value MURS120
SYMBOL diode -432 480 M270
WINDOW 0 32 32 VTop 2
WINDOW 3 0 32 VBottom 2
SYMATTR InstName D2
SYMATTR Value MURS120
SYMBOL res 752 208 R0
SYMATTR InstName Rload
SYMATTR Value 1.3K
SYMBOL LTC4265 112 304 R0
WINDOW 0 0 -63 Center 2
WINDOW 3 0 78 Center 2
SYMATTR InstName U1
TEXT 392 576 Left 2 !.tran 1
TEXT -392 400 Right 2 ;Diode Bridge
TEXT -224 480 Top 2 ;Set for Class 4 Load
