Version 4
SHEET 1 5320 2776
WIRE 1648 624 1552 624
WIRE 1744 624 1648 624
WIRE 1824 624 1744 624
WIRE 1952 624 1824 624
WIRE 1968 624 1952 624
WIRE 2064 624 2048 624
WIRE 2192 624 2064 624
WIRE 2400 624 2288 624
WIRE 2496 624 2400 624
WIRE 2592 624 2496 624
WIRE 2672 624 2592 624
WIRE 2752 624 2672 624
WIRE 2848 624 2752 624
WIRE 2976 624 2848 624
WIRE 2848 640 2848 624
WIRE 2976 640 2976 624
WIRE 1920 656 1952 624
WIRE 2096 656 2064 624
WIRE 3120 656 3024 656
WIRE 2592 672 2592 624
WIRE 2752 672 2752 624
WIRE 2272 688 2272 672
WIRE 3120 688 3120 656
WIRE 1744 704 1744 624
WIRE 3040 704 3024 704
WIRE 2848 752 2848 720
WIRE 2976 752 2976 720
WIRE 2672 768 2672 624
WIRE 2496 784 2496 624
WIRE 2176 800 2160 800
WIRE 2272 800 2272 768
WIRE 2272 800 2240 800
WIRE 3120 800 3120 768
WIRE 1920 848 1920 656
WIRE 2096 848 2096 656
WIRE 2272 848 2272 800
WIRE 2400 848 2400 624
WIRE 2752 848 2752 752
WIRE 1824 928 1824 624
WIRE 1840 928 1824 928
WIRE 2592 928 2592 752
WIRE 2592 928 2464 928
WIRE 2752 928 2752 912
WIRE 1648 960 1648 624
WIRE 1744 992 1744 784
WIRE 1840 992 1744 992
WIRE 2672 992 2672 848
WIRE 2672 992 2464 992
WIRE 1648 1056 1648 1040
WIRE 1840 1056 1648 1056
WIRE 2496 1056 2496 864
WIRE 2496 1056 2464 1056
WIRE 1648 1072 1648 1056
WIRE 2496 1088 2496 1056
WIRE 2272 1136 2272 1120
WIRE 2032 1152 2032 1120
WIRE 1552 1168 1552 624
WIRE 1648 1168 1648 1152
WIRE 2496 1200 2496 1168
WIRE 2272 1216 2272 1200
WIRE 1552 1296 1552 1248
FLAG 1552 1296 0
FLAG 1552 624 IN
FLAG 2976 624 OUT
FLAG 3040 704 0
FLAG 2160 800 0
FLAG 1648 1168 0
FLAG 2032 1152 0
FLAG 2272 1216 0
FLAG 2496 1200 0
FLAG 2752 928 0
FLAG 2848 752 0
FLAG 2976 752 0
FLAG 3120 800 0
SYMBOL SW 2976 736 R180
WINDOW 0 -8 104 Right 2
WINDOW 3 -9 2 Right 2
SYMATTR InstName S1
SYMATTR Value SHORT
SYMBOL voltage 1552 1152 R0
WINDOW 123 0 0 Left 2
WINDOW 39 0 0 Left 2
SYMATTR Value PWL(0 0 1m 12 20m 12 20.2m 80 30m 45 43m 26.9 80m 12)
SYMATTR InstName V1
SYMBOL voltage 3120 672 R0
WINDOW 123 0 0 Left 2
WINDOW 39 0 0 Left 2
WINDOW 3 12 104 Left 2
SYMATTR Value PWL(0 0 150m 0 151m 1 170m 1 171m 0)
SYMATTR InstName V2
SYMBOL res 1632 944 R0
SYMATTR InstName R1
SYMATTR Value 383K
SYMBOL res 1632 1056 R0
SYMATTR InstName R2
SYMATTR Value 100K
SYMBOL res 1952 640 R270
WINDOW 0 32 56 VTop 2
WINDOW 3 0 56 VBottom 2
SYMATTR InstName R3
SYMATTR Value 10m
SYMBOL res 2256 672 R0
SYMATTR InstName R4
SYMATTR Value 10
SYMBOL res 2480 768 R0
SYMATTR InstName R5
SYMATTR Value 102K
SYMBOL res 2480 1072 R0
SYMATTR InstName R6
SYMATTR Value 4.99K
SYMBOL cap 2736 848 R0
SYMATTR InstName C1
SYMATTR Value 22µ
SYMBOL cap 2256 1136 R0
SYMATTR InstName C2
SYMATTR Value .22µ
SYMBOL LT4356-1 2144 1008 R0
SYMATTR InstName U1
SYMBOL res 2736 656 R0
SYMATTR InstName R7
SYMATTR Value .5
SYMBOL res 2576 656 R0
SYMATTR InstName R8
SYMATTR Value 27K
SYMBOL res 2656 752 R0
SYMATTR InstName R9
SYMATTR Value 27K
SYMBOL res 1728 688 R0
SYMATTR InstName R10
SYMATTR Value 27K
SYMBOL cap 2240 784 R90
WINDOW 3 32 32 VTop 2
WINDOW 0 0 32 VBottom 2
SYMATTR Value .0068µ
SYMATTR InstName C3
SYMBOL nmos 2192 672 R270
WINDOW 0 58 45 VTop 2
WINDOW 3 -21 68 VLeft 2
SYMATTR InstName Q1
SYMATTR Value IRF1310
SYMBOL res 2832 624 R0
SYMATTR InstName Rload
SYMATTR Value 50
TEXT 2824 1064 Left 2 !.tran 300m
TEXT 2632 1176 Left 2 !.model SHORT SW(Ron=10m Roff=1G Vt=0.5 Vh=-.1)
