Version 4
SHEET 1 5320 2776
WIRE 1648 624 1552 624
WIRE 1744 624 1648 624
WIRE 1824 624 1744 624
WIRE 1952 624 1824 624
WIRE 1968 624 1952 624
WIRE 2064 624 2048 624
WIRE 2192 624 2064 624
WIRE 2400 624 2288 624
WIRE 2496 624 2400 624
WIRE 2592 624 2496 624
WIRE 2672 624 2592 624
WIRE 2752 624 2672 624
WIRE 2848 624 2752 624
WIRE 2976 624 2848 624
WIRE 1920 656 1952 624
WIRE 2096 656 2064 624
WIRE 2592 672 2592 624
WIRE 2752 672 2752 624
WIRE 2272 688 2272 672
WIRE 2848 688 2848 624
WIRE 2976 688 2976 624
WIRE 1648 704 1648 624
WIRE 1744 704 1744 624
WIRE 1824 704 1824 624
WIRE 3104 704 3024 704
WIRE 3104 736 3104 704
WIRE 3040 752 3024 752
WIRE 2672 768 2672 624
WIRE 2496 784 2496 624
WIRE 2176 800 2160 800
WIRE 2272 800 2272 768
WIRE 2272 800 2240 800
WIRE 2848 816 2848 768
WIRE 2976 816 2976 768
WIRE 1824 848 1824 784
WIRE 1824 848 1392 848
WIRE 1920 848 1920 656
WIRE 2096 848 2096 656
WIRE 2272 848 2272 800
WIRE 2400 848 2400 624
WIRE 2752 848 2752 752
WIRE 3104 848 3104 816
WIRE 1392 880 1392 848
WIRE 1824 928 1824 848
WIRE 1840 928 1824 928
WIRE 2592 928 2592 752
WIRE 2592 928 2464 928
WIRE 2752 928 2752 912
WIRE 1344 960 1328 960
WIRE 1744 992 1744 784
WIRE 1840 992 1744 992
WIRE 2672 992 2672 848
WIRE 2672 992 2464 992
WIRE 1648 1056 1648 784
WIRE 1840 1056 1648 1056
WIRE 2496 1056 2496 864
WIRE 2496 1056 2464 1056
WIRE 1648 1072 1648 1056
WIRE 2496 1088 2496 1056
WIRE 2272 1136 2272 1120
WIRE 2032 1152 2032 1120
WIRE 1552 1168 1552 624
WIRE 1648 1168 1648 1152
WIRE 2496 1200 2496 1168
WIRE 2272 1216 2272 1200
WIRE 1328 1248 1328 960
WIRE 1552 1296 1552 1248
WIRE 1328 1360 1328 1328
FLAG 1552 1296 0
FLAG 1552 624 IN
FLAG 2976 624 OUT
FLAG 3040 752 0
FLAG 2160 800 0
FLAG 1648 1168 0
FLAG 2032 1152 0
FLAG 2272 1216 0
FLAG 2496 1200 0
FLAG 2752 928 0
FLAG 2848 816 0
FLAG 2976 816 0
FLAG 3104 848 0
FLAG 1328 1360 0
FLAG 1392 976 0
SYMBOL SW 2976 784 R180
WINDOW 0 -8 104 Right 0
WINDOW 3 -9 2 Right 0
SYMATTR InstName S1
SYMATTR Value SHORT
SYMBOL voltage 1552 1152 R0
WINDOW 123 0 0 Left 0
WINDOW 39 0 0 Left 0
SYMATTR Value PWL(0 0 1m 12 20m 12 20.2m 80 30m 45 43m 26.9 80m 12)
SYMATTR InstName V1
SYMBOL voltage 3104 720 R0
WINDOW 123 0 0 Left 0
WINDOW 39 0 0 Left 0
WINDOW 3 12 104 Left 0
SYMATTR Value PWL(0 0 150m 0 151m 5 170m 5 171m 0)
SYMATTR InstName V2
SYMBOL res 1632 688 R0
SYMATTR InstName R1
SYMATTR Value 383K
SYMBOL res 1632 1056 R0
SYMATTR InstName R2
SYMATTR Value 100K
SYMBOL res 1952 640 R270
WINDOW 0 32 56 VTop 0
WINDOW 3 0 56 VBottom 0
SYMATTR InstName R3
SYMATTR Value 10m
SYMBOL res 2256 672 R0
SYMATTR InstName R4
SYMATTR Value 10
SYMBOL res 2480 768 R0
SYMATTR InstName R5
SYMATTR Value 102K
SYMBOL res 2480 1072 R0
SYMATTR InstName R6
SYMATTR Value 4.99K
SYMBOL cap 2736 848 R0
SYMATTR InstName C1
SYMATTR Value 22µ
SYMBOL cap 2256 1136 R0
SYMATTR InstName C2
SYMATTR Value .22µ
SYMBOL res 2736 656 R0
SYMATTR InstName R7
SYMATTR Value .05
SYMBOL res 2576 656 R0
SYMATTR InstName R8
SYMATTR Value 27K
SYMBOL res 2656 752 R0
SYMATTR InstName R9
SYMATTR Value 27K
SYMBOL res 1728 688 R0
SYMATTR InstName R10
SYMATTR Value 27K
SYMBOL cap 2240 784 R90
WINDOW 3 32 32 VTop 0
WINDOW 0 0 32 VBottom 0
SYMATTR Value .0068µ
SYMATTR InstName C3
SYMBOL nmos 2192 672 R270
WINDOW 0 58 45 VTop 0
WINDOW 3 -21 68 VLeft 0
SYMATTR InstName Q1
SYMATTR Value IRF1310
SYMBOL res 2832 672 R0
SYMATTR InstName R11
SYMATTR Value 10
SYMBOL LT4356-3 2144 1008 R0
SYMATTR InstName U1
SYMBOL voltage 1328 1232 R0
WINDOW 123 0 0 Left 0
WINDOW 39 0 0 Left 0
SYMATTR InstName V3
SYMATTR Value PWL(0 0 90m 0 90.1m 5 100m 5 100.1m 0)
SYMBOL nmos 1344 880 R0
SYMATTR InstName Q2
SYMATTR Value SUD40N10-25
SYMBOL res 1808 688 R0
SYMATTR InstName R12
SYMATTR Value 10K
TEXT 2632 1144 Left 0 !.tran 200m
TEXT 2632 1176 Left 0 !.model SHORT SW(Ron=10m Roff=1G Vt=0.5 Vh=-.1)
TEXT 1400 1376 Left 0 ;Use SHDN# to reset GATE off latch
