Version 4
SHEET 1 948 1284
WIRE -48 144 -400 144
WIRE 112 144 -48 144
WIRE 304 144 208 144
WIRE -400 176 -400 144
WIRE 128 224 128 192
WIRE -400 288 -400 256
WIRE -48 288 -48 144
WIRE 0 288 -48 288
WIRE 304 288 304 144
WIRE 304 288 256 288
WIRE 304 384 304 288
WIRE 304 384 256 384
WIRE 128 464 128 448
WIRE 304 464 304 384
WIRE 448 464 304 464
WIRE 448 480 448 464
WIRE -48 512 -320 512
WIRE 112 512 -48 512
WIRE 304 512 304 464
WIRE 304 512 208 512
WIRE 448 576 448 560
WIRE 128 592 128 560
WIRE -320 624 -320 512
WIRE -48 656 -48 512
WIRE 0 656 -48 656
WIRE 304 656 304 512
WIRE 304 656 256 656
WIRE -320 736 -320 704
WIRE 304 752 304 656
WIRE 304 752 256 752
WIRE 128 832 128 816
FLAG 128 464 0
FLAG -400 288 0
FLAG 448 576 0
FLAG 128 832 0
FLAG -320 736 0
SYMBOL LTC4357 128 336 R0
SYMATTR InstName U1
SYMBOL voltage -400 160 R0
WINDOW 123 0 0 Left 0
WINDOW 39 0 0 Left 0
SYMATTR Value PWL(0 48 50m 0 100m 48)
SYMATTR InstName V1
SYMBOL res 432 464 R0
SYMATTR InstName Rload
SYMATTR Value 10
SYMBOL LTC4357 128 704 R0
SYMATTR InstName U2
SYMBOL voltage -320 608 R0
WINDOW 123 0 0 Left 0
WINDOW 39 0 0 Left 0
SYMATTR Value PWL(0 0 50m 48 100m 0)
SYMATTR InstName V2
SYMBOL nmos 208 192 M270
WINDOW 0 55 46 VTop 0
WINDOW 3 -13 73 VLeft 0
SYMATTR InstName Q1
SYMATTR Value IRF530
SYMBOL nmos 208 560 M270
WINDOW 0 55 46 VTop 0
WINDOW 3 -13 73 VLeft 0
SYMATTR InstName Q2
SYMATTR Value IRF530
TEXT 360 720 Left 0 !.tran 100m
