Version 4
SHEET 1 948 1284
WIRE 0 272 -384 272
WIRE 352 272 256 272
WIRE -384 304 -384 272
WIRE 352 336 352 272
WIRE 352 336 256 336
WIRE 352 400 352 336
WIRE 352 400 256 400
WIRE -384 416 -384 384
WIRE 128 464 128 448
WIRE 352 544 352 400
WIRE 432 544 352 544
WIRE 432 592 432 544
WIRE 0 688 -384 688
WIRE 352 688 352 544
WIRE 352 688 256 688
WIRE -384 736 -384 688
WIRE 432 736 432 672
WIRE 352 752 352 688
WIRE 352 752 256 752
WIRE 352 816 352 752
WIRE 352 816 256 816
WIRE -384 848 -384 816
WIRE 128 880 128 864
FLAG 128 464 0
FLAG -384 416 0
FLAG 128 880 0
FLAG -384 848 0
FLAG 432 736 0
SYMBOL voltage -384 288 R0
WINDOW 123 0 0 Left 0
WINDOW 39 0 0 Left 0
SYMATTR Value PWL(0 12 50m 0 100m 12)
SYMATTR InstName V1
SYMBOL voltage -384 720 R0
WINDOW 123 0 0 Left 0
WINDOW 39 0 0 Left 0
SYMATTR Value PWL(0 0 50m 12 100m 0)
SYMATTR InstName V2
SYMBOL LTC4358 128 336 R0
SYMATTR InstName U1
SYMBOL LTC4358 128 752 R0
SYMATTR InstName U2
SYMBOL res 416 576 R0
SYMATTR InstName Rload
SYMATTR Value 2
TEXT -432 552 Left 0 !.tran 100m
