Version 4
SHEET 1 880 680
WIRE 16 144 -112 144
WIRE 288 144 272 144
WIRE 384 144 288 144
WIRE 464 144 384 144
WIRE 384 160 384 144
WIRE 464 160 464 144
WIRE -112 176 -112 144
WIRE 16 208 -16 208
WIRE 384 256 384 224
WIRE 464 256 464 240
WIRE -112 272 -112 256
WIRE 16 272 -16 272
WIRE 352 272 272 272
WIRE 352 288 352 272
WIRE 16 336 -16 336
WIRE 16 400 -112 400
WIRE 288 400 288 144
WIRE 288 400 272 400
WIRE 352 416 352 368
WIRE -112 432 -112 400
WIRE 352 512 352 496
WIRE -112 528 -112 512
FLAG -16 208 0
FLAG -112 272 0
FLAG -16 272 0
FLAG 384 256 0
FLAG 464 256 0
FLAG 352 512 0
FLAG -16 336 0
FLAG -112 528 0
SYMBOL voltage -112 160 R0
WINDOW 0 17 15 Left 0
WINDOW 3 21 97 Left 0
WINDOW 123 0 0 Left 0
WINDOW 39 0 0 Left 0
SYMATTR InstName Wall
SYMATTR Value 5
SYMBOL res 448 144 R0
SYMATTR InstName Load
SYMATTR Value 10
SYMBOL res 336 272 R0
SYMATTR InstName R2
SYMATTR Value 470K
SYMBOL voltage 352 400 R0
WINDOW 123 0 0 Left 0
WINDOW 39 0 0 Left 0
SYMATTR InstName Vcc
SYMATTR Value 5
SYMBOL cap 368 160 R0
WINDOW 0 24 16 Left 0
SYMATTR InstName C2
SYMATTR Value 4.7µ
SYMBOL voltage -112 416 R0
WINDOW 0 17 15 Left 0
WINDOW 3 21 97 Left 0
WINDOW 123 0 0 Left 0
WINDOW 39 0 0 Left 0
SYMATTR InstName Battery
SYMATTR Value 3.6
SYMBOL LTC4413-1 144 272 R0
SYMATTR InstName U1
TEXT 48 480 Left 0 !.tran 1m startup
