Version 4
SHEET 1 2336 1256
WIRE 1104 -144 912 -144
WIRE 1424 -144 1104 -144
WIRE 912 -128 912 -144
WIRE 1104 -80 1104 -144
WIRE 1136 -80 1104 -80
WIRE 1424 -80 1424 -144
WIRE 1424 -80 1392 -80
WIRE 912 -32 912 -48
WIRE 1136 0 736 0
WIRE 1424 0 1392 0
WIRE 736 16 736 0
WIRE 1136 80 1104 80
WIRE 1424 80 1392 80
WIRE 736 112 736 96
FLAG 1104 80 0
FLAG 912 -32 0
FLAG 1424 80 0
FLAG 736 112 0
SYMBOL voltage 912 -144 R0
SYMATTR InstName V1
SYMATTR Value 5
SYMBOL voltage 736 0 R0
WINDOW 123 0 0 Left 2
WINDOW 39 0 0 Left 2
SYMATTR InstName V2
SYMATTR Value PULSE(0 8 0 1n 1n 1u 2u)
SYMBOL PowerProducts\\LTC4440A-5 1264 0 R0
SYMATTR InstName U1
TEXT 1376 176 Left 2 !.tran 50u
