Version 4
SHEET 1 1260 692
WIRE 384 64 160 64
WIRE 160 80 160 64
WIRE 384 80 384 64
WIRE 512 80 512 64
WIRE 272 128 256 128
WIRE 768 128 624 128
WIRE 816 128 768 128
WIRE 816 144 816 128
WIRE 160 176 160 160
WIRE 272 176 256 176
WIRE 640 176 624 176
WIRE 736 176 720 176
WIRE 272 224 256 224
WIRE 640 224 624 224
WIRE 816 240 816 224
WIRE 272 272 256 272
WIRE 640 272 624 272
WIRE 768 272 768 128
WIRE 768 272 720 272
WIRE 384 336 384 320
WIRE 512 336 512 320
FLAG 160 176 0
FLAG 384 336 0
FLAG 512 336 0
FLAG 816 240 0
FLAG 736 176 0
FLAG 816 128 OUT
FLAG 160 64 IN
SYMBOL voltage 160 64 R0
SYMATTR InstName V1
SYMATTR Value 12
SYMBOL res 624 192 R270
WINDOW 0 32 56 VTop 0
WINDOW 3 0 56 VBottom 0
SYMATTR InstName R1
SYMATTR Value 31.6K
SYMBOL res 736 256 R90
WINDOW 0 0 56 VBottom 0
WINDOW 3 32 56 VTop 0
SYMATTR InstName R2
SYMATTR Value 100K
SYMBOL res 800 128 R0
SYMATTR InstName Rload
SYMATTR Value .41
SYMBOL PowerProducts\\LTM4602HV 448 192 R0
SYMATTR InstName U1
TEXT 736 336 Left 0 !.tran 2.5m startup
