Version 4
SHEET 1 880 680
WIRE -64 96 -192 96
WIRE 64 96 -64 96
WIRE 256 96 144 96
WIRE 336 96 256 96
WIRE 400 96 336 96
WIRE 256 112 256 96
WIRE 400 112 400 96
WIRE -192 128 -192 96
WIRE -64 208 -64 96
WIRE -32 208 -64 208
WIRE 256 208 256 192
WIRE 256 208 224 208
WIRE 400 224 400 192
WIRE -192 240 -192 208
WIRE -32 320 -64 320
WIRE 336 320 336 96
WIRE 336 320 224 320
WIRE -64 352 -64 320
WIRE 272 480 224 480
WIRE 272 496 272 480
WIRE 272 592 272 576
FLAG 400 224 0
FLAG -192 240 0
FLAG -64 352 0
FLAG 272 592 0
FLAG 272 480 OUT
SYMBOL voltage 400 96 R0
WINDOW 123 0 0 Left 0
WINDOW 39 0 0 Left 0
SYMATTR InstName V1
SYMATTR Value 12
SYMBOL res 160 80 R90
WINDOW 0 0 56 VBottom 0
WINDOW 3 32 56 VTop 0
SYMATTR InstName R1
SYMATTR Value .1
SYMBOL current -192 128 R0
WINDOW 123 24 116 Left 0
WINDOW 39 0 0 Left 0
SYMATTR InstName Iload
SYMATTR Value 0
SYMBOL LTC6101 96 336 R0
SYMATTR InstName U1
SYMBOL res 240 96 R0
SYMATTR InstName R2
SYMATTR Value 100
SYMBOL res 256 480 R0
SYMATTR InstName R3
SYMATTR Value 5K
TEXT 352 472 Left 0 !.dc Iload 0 1 0.01
