Version 4
SHEET 1 880 680
WIRE -48 -96 -64 -96
WIRE 80 -96 32 -96
WIRE 176 -96 80 -96
WIRE 192 -96 176 -96
WIRE 368 -96 272 -96
WIRE 448 -96 368 -96
WIRE 448 -80 448 -96
WIRE 176 -48 176 -96
WIRE 272 -48 272 -96
WIRE 448 16 448 0
WIRE 176 48 176 32
WIRE 272 48 272 32
WIRE 176 64 272 48
WIRE 272 64 176 48
WIRE 80 80 80 -96
WIRE 176 80 176 64
WIRE 272 80 272 64
WIRE 368 80 368 -96
WIRE 496 208 416 208
WIRE 496 224 496 208
WIRE 496 320 496 304
WIRE 224 352 224 336
WIRE 496 416 496 400
FLAG 224 352 0
FLAG 448 16 0
FLAG -64 -96 0
FLAG 496 416 0
SYMBOL opamps\\LTC6104 224 208 R0
SYMATTR InstName U1
SYMBOL res 288 -112 R90
WINDOW 0 0 56 VBottom 0
WINDOW 3 32 56 VTop 0
SYMATTR InstName R1
SYMATTR Value 50m
SYMBOL res 160 48 M180
WINDOW 0 36 76 Left 0
WINDOW 3 36 40 Left 0
SYMATTR InstName R2
SYMATTR Value 100
SYMBOL res 256 48 M180
WINDOW 0 36 76 Left 0
WINDOW 3 36 40 Left 0
SYMATTR InstName R3
SYMATTR Value 100
SYMBOL voltage 448 -96 R0
SYMATTR InstName V1
SYMATTR Value 12
SYMBOL current -48 -96 M90
WINDOW 0 -32 40 VBottom 0
WINDOW 3 32 40 VTop 0
SYMATTR InstName I1
SYMATTR Value sine(0 2 100)
SYMBOL voltage 496 304 R0
SYMATTR InstName V2
SYMATTR Value 2
SYMBOL res 480 208 R0
SYMATTR InstName R4
SYMATTR Value 1K
TEXT 616 384 Left 0 !.tran 30m
