Version 4
SHEET 1 1280 680
WIRE 288 -96 144 -96
WIRE 400 -96 368 -96
WIRE 464 -96 400 -96
WIRE 656 -96 544 -96
WIRE 144 -80 144 -96
WIRE 144 16 144 0
WIRE 736 48 496 48
WIRE 496 64 496 48
WIRE 736 64 736 48
WIRE 400 112 400 -96
WIRE 464 112 400 112
WIRE 656 112 656 -96
WIRE 656 112 624 112
WIRE 320 144 288 144
WIRE 464 144 384 144
WIRE 736 160 736 144
WIRE 464 176 400 176
WIRE 656 176 624 176
WIRE 496 256 496 224
WIRE 304 336 224 336
WIRE 400 336 400 176
WIRE 400 336 384 336
WIRE 480 336 400 336
WIRE 656 336 656 176
WIRE 656 336 560 336
FLAG 144 16 0
FLAG 736 160 0
FLAG 224 336 0
FLAG 496 256 0
FLAG 288 144 0
SYMBOL LTC6362 528 144 R0
SYMATTR InstName U1
SYMBOL res 560 -112 R90
WINDOW 0 0 56 VBottom 2
WINDOW 3 32 56 VTop 2
SYMATTR InstName R1
SYMATTR Value 1K
SYMBOL res 384 -112 R90
WINDOW 0 0 56 VBottom 2
WINDOW 3 32 56 VTop 2
SYMATTR InstName R2
SYMATTR Value 1K
SYMBOL res 576 320 R90
WINDOW 0 0 56 VBottom 2
WINDOW 3 32 56 VTop 2
SYMATTR InstName R3
SYMATTR Value 1K
SYMBOL res 400 320 R90
WINDOW 0 0 56 VBottom 2
WINDOW 3 32 56 VTop 2
SYMATTR InstName R4
SYMATTR Value 1K
SYMBOL voltage 144 -96 R0
WINDOW 123 37 59 Left 2
WINDOW 39 0 0 Left 2
SYMATTR Value2 AC 1
SYMATTR InstName V1
SYMATTR Value SINE(0 1 250K)
SYMBOL voltage 736 48 R0
WINDOW 123 24 138 Left 2
WINDOW 39 24 117 Left 2
SYMATTR InstName V2
SYMATTR Value 5
SYMBOL cap 384 128 R90
WINDOW 0 0 32 VBottom 2
WINDOW 3 32 32 VTop 2
SYMATTR InstName C1
SYMATTR Value .1µ
TEXT 656 360 Left 2 !.tran 100u
