Version 4
SHEET 1 4212 1120
WIRE 2288 256 1824 256
WIRE 2288 272 2288 256
WIRE 2592 288 2336 288
WIRE 2704 288 2672 288
WIRE 2352 336 2336 336
WIRE 1824 384 1824 256
WIRE 1824 384 1664 384
WIRE 1872 384 1824 384
WIRE 2176 384 2096 384
WIRE 2288 384 2288 352
WIRE 2288 384 2176 384
WIRE 2384 384 2288 384
WIRE 1664 400 1664 384
WIRE 2176 400 2176 384
WIRE 2288 432 2288 384
WIRE 2592 448 2336 448
WIRE 2704 448 2672 448
WIRE 1984 480 1984 448
WIRE 2176 480 2176 464
WIRE 1664 496 1664 480
WIRE 2352 496 2336 496
WIRE 2288 528 2288 512
FLAG 1984 480 0
FLAG 2384 384 OUT
FLAG 1664 384 IN
FLAG 1664 496 0
FLAG 2176 480 0
FLAG 2288 528 0
FLAG 2352 496 0
FLAG 2704 448 0
FLAG 2352 336 0
FLAG 2704 288 0
SYMBOL voltage 1664 384 R0
WINDOW 123 0 0 Left 2
WINDOW 39 0 0 Left 2
SYMATTR InstName V1
SYMATTR Value 3
SYMBOL cap 2160 400 R0
SYMATTR InstName C1
SYMATTR Value 1µ
SYMBOL LT6654-2.5 1984 384 R0
SYMATTR InstName U1
SYMBOL sw 2288 528 R180
WINDOW 0 -7 103 Right 2
WINDOW 3 -10 16 Right 2
SYMATTR InstName S1
SYMATTR Value 5mA
SYMBOL voltage 2576 448 M90
WINDOW 123 74 56 VTop 2
WINDOW 39 53 56 VTop 2
WINDOW 0 -32 56 VBottom 2
WINDOW 3 32 56 VTop 2
SYMATTR InstName V2
SYMATTR Value PULSE(0 1 600u 10n 10n 200u 10m)
SYMBOL sw 2288 368 R180
WINDOW 0 -11 104 Right 2
WINDOW 3 -15 14 Right 2
SYMATTR InstName S2
SYMATTR Value 5mA
SYMBOL voltage 2576 288 M90
WINDOW 123 74 56 VTop 2
WINDOW 39 53 56 VTop 2
WINDOW 3 32 56 VTop 2
WINDOW 0 -32 56 VBottom 2
SYMATTR Value PULSE(0 1 100u 10n 10n 200u 10m)
SYMATTR InstName V3
TEXT 2544 600 Left 2 !.tran 1m
TEXT 1648 568 Left 2 !.model 5mA SW(Ron=10 Roff=1Meg Vt=.5 Vh=-.2 Ilimit=5m level=2)
TEXT 1984 240 Bottom 2 ;Turn on and off 5mA of sink current\nand then on and off 5mA of source current
