Version 4
SHEET 1 1108 752
WIRE 112 48 -80 48
WIRE 128 48 112 48
WIRE 576 48 448 48
WIRE 864 48 576 48
WIRE -80 64 -80 48
WIRE 864 112 864 48
WIRE 112 144 112 48
WIRE 128 144 112 144
WIRE 672 144 448 144
WIRE 752 144 672 144
WIRE -80 160 -80 144
WIRE 576 192 576 48
WIRE 48 240 32 240
WIRE 128 240 112 240
WIRE 464 240 448 240
WIRE 672 240 672 144
WIRE 752 240 752 144
WIRE 128 336 112 336
WIRE 480 336 448 336
WIRE 32 432 16 432
WIRE 128 432 112 432
WIRE 480 432 480 416
WIRE 480 432 448 432
WIRE 576 432 576 256
WIRE 576 432 480 432
WIRE 672 432 672 304
WIRE 672 432 576 432
WIRE 752 432 752 320
WIRE 752 432 672 432
WIRE 864 432 864 192
WIRE 864 432 752 432
WIRE 864 448 864 432
WIRE 288 496 288 480
FLAG -80 160 0
FLAG 32 240 0
FLAG 16 432 0
FLAG 288 496 0
FLAG 864 448 0
FLAG 864 48 OUT1
FLAG -80 48 IN
FLAG 752 144 OUT2
SYMBOL voltage -80 48 R0
SYMATTR InstName V1
SYMATTR Value 10
SYMBOL cap 112 224 R90
WINDOW 0 0 32 VBottom 0
WINDOW 3 32 32 VTop 0
SYMATTR InstName C1
SYMATTR Value 4.7µ
SYMBOL res 128 416 R90
WINDOW 0 0 56 VBottom 0
WINDOW 3 32 56 VTop 0
SYMATTR InstName R1
SYMATTR Value 6.19K
SYMBOL cap 560 192 R0
SYMATTR InstName C2
SYMATTR Value 22µ
SYMBOL res 464 320 R0
SYMATTR InstName R2
SYMATTR Value 162K
SYMBOL cap 656 240 R0
SYMATTR InstName C3
SYMATTR Value 10µ
SYMBOL res 736 224 R0
SYMATTR InstName Rload2
SYMATTR Value 64
SYMBOL res 848 96 R0
SYMATTR InstName Rload1
SYMATTR Value 64
SYMBOL PowerProducts\\LTM8048A 288 240 R0
SYMATTR InstName U1
TEXT 584 472 Left 0 !.tran 3m startup
