Version 4
SHEET 1 880 680
WIRE -16 -48 -96 -48
WIRE 208 -48 -16 -48
WIRE 208 -32 208 -48
WIRE -96 0 -96 -48
WIRE 64 32 -16 32
WIRE 432 32 352 32
WIRE 528 32 432 32
WIRE 624 32 528 32
WIRE 432 48 432 32
WIRE 528 48 528 32
WIRE 624 48 624 32
WIRE -96 96 -96 80
WIRE 64 128 48 128
WIRE 368 128 352 128
WIRE 432 144 432 112
WIRE 528 144 528 112
WIRE 624 144 624 128
WIRE 48 224 48 128
WIRE 64 224 48 224
WIRE 368 224 352 224
WIRE 464 224 448 224
WIRE 48 320 48 224
WIRE 64 320 48 320
WIRE 368 320 352 320
WIRE 64 416 48 416
WIRE 368 416 352 416
WIRE 464 416 448 416
WIRE 208 496 208 480
FLAG 208 496 0
FLAG -96 96 0
FLAG -96 -48 IN
FLAG 464 416 0
FLAG 464 224 0
FLAG 624 144 0
FLAG 432 144 0
FLAG 624 32 OUT
FLAG 528 144 0
SYMBOL voltage -96 -16 R0
SYMATTR InstName V1
SYMATTR Value 24
SYMBOL res -32 -64 R0
SYMATTR InstName R1
SYMATTR Value 510K
SYMBOL res 352 432 R270
WINDOW 0 32 56 VTop 2
WINDOW 3 0 56 VBottom 2
SYMATTR InstName R2
SYMATTR Value 90.9K
SYMBOL res 352 240 R270
WINDOW 0 32 56 VTop 2
WINDOW 3 0 56 VBottom 2
SYMATTR InstName R3
SYMATTR Value 9.09K
SYMBOL polcap 416 48 R0
WINDOW 3 24 64 Left 2
SYMATTR Value 330µ
SYMATTR InstName C1
SYMATTR Description Capacitor
SYMATTR Type cap
SYMATTR SpiceLine V=6.3 Irms=3.9 Rser=0.01 Lser=0 mfg="KEMET" pn="T520D337M006ASE010" type="Tantalum"
SYMBOL res 608 32 R0
SYMATTR InstName Rload
SYMATTR Value .5
SYMBOL PowerProducts\\LTM8052A 208 224 R0
SYMATTR InstName U1
SYMBOL cap 512 48 R0
SYMATTR InstName C2
SYMATTR Value 100µ
SYMATTR SpiceLine V=6.3 Irms=0 Rser=0.002 Lser=0 mfg="TDK" pn="C575OX5ROJI07M" type="X5R"
TEXT 472 320 Left 2 !.tran 1.2m startup
