Version 4
SHEET 1 896 680
WIRE 80 -64 -32 -64
WIRE 384 -64 368 -64
WIRE 496 -64 384 -64
WIRE -32 -48 -32 -64
WIRE 496 -48 496 -64
WIRE 80 32 64 32
WIRE 384 32 384 -64
WIRE 384 32 368 32
WIRE 496 32 496 16
WIRE -32 48 -32 32
WIRE 64 128 64 32
WIRE 80 128 64 128
WIRE 384 128 368 128
WIRE -16 224 -32 224
WIRE 64 224 64 128
WIRE 64 224 48 224
WIRE 80 224 64 224
WIRE 384 224 368 224
WIRE 80 320 64 320
WIRE 384 320 368 320
WIRE 80 416 64 416
WIRE 384 416 368 416
FLAG 64 416 0
FLAG -32 48 0
FLAG 496 32 0
FLAG -32 -64 IN
FLAG 496 -64 OUT
FLAG -32 224 0
FLAG 64 320 0
SYMBOL voltage -32 -64 R0
SYMATTR InstName V1
SYMATTR Value 12
SYMBOL cap 480 -48 R0
SYMATTR InstName C1
SYMATTR Value .2m
SYMBOL cap 48 208 R90
WINDOW 0 0 32 VBottom 2
WINDOW 3 32 32 VTop 2
SYMATTR InstName C3
SYMATTR Value 4.7µ
SYMBOL PowerProducts\\LTM8061-4.2 224 176 R0
SYMATTR InstName U1
TEXT 440 184 Left 2 !.tran 3m startup
