Version 4
SHEET 1 920 680
WIRE 64 -64 -32 -64
WIRE 80 -64 64 -64
WIRE -32 -48 -32 -64
WIRE 64 32 64 -64
WIRE 80 32 64 32
WIRE -32 48 -32 32
WIRE 64 128 64 32
WIRE 80 128 64 128
WIRE 512 128 368 128
WIRE 576 128 512 128
WIRE 576 144 576 128
WIRE 64 224 64 128
WIRE 80 224 64 224
WIRE 512 224 512 128
WIRE 512 224 368 224
WIRE 576 240 576 208
WIRE 512 288 512 224
WIRE 80 320 64 320
WIRE 80 416 64 416
WIRE 512 416 512 368
WIRE 512 416 368 416
WIRE 512 432 512 416
WIRE 512 528 512 512
FLAG 64 416 0
FLAG -32 48 0
FLAG 576 240 0
FLAG -32 -64 IN
FLAG 576 128 OUT
FLAG 64 320 0
FLAG 512 528 0
SYMBOL voltage -32 -64 R0
SYMATTR InstName V1
SYMATTR Value 25
SYMBOL cap 560 144 R0
SYMATTR InstName C1
SYMATTR Value .1m
SYMBOL res 496 272 R0
SYMATTR InstName R1
SYMATTR Value 1.24Meg
SYMBOL res 496 416 R0
SYMATTR InstName R2
SYMATTR Value 312K
SYMBOL PowerProducts\\LTM8062A 224 176 R0
SYMATTR InstName U1
TEXT 680 448 Left 2 !.tran 6m startup
